@<TRIPOS>MOLECULE
*****
 33 37 0 0 0
SMALL
GASTEIGER

@<TRIPOS>ATOM
      1 N         140.1824  138.1903  162.3554 N.3     1  UNL1       -0.2695
      2 C         140.0769  137.9842  163.8374 C.3     1  UNL1        0.0939
      3 C         141.2813  138.1818  164.7096 C.3     1  UNL1        0.1107
      4 N         142.5910  138.5854  164.0998 N.am    1  UNL1       -0.2764
      5 C         143.7952  138.7830  164.9720 C.2     1  UNL1        0.2302
      6 O         145.1048  139.1866  164.3622 O.2     1  UNL1       -0.2745
      7 C         142.6963  138.7915  162.6177 C.3     1  UNL1        0.1107
      8 C         141.4920  138.5939  161.7456 C.3     1  UNL1        0.0939
      9 C         138.9782  137.9928  161.4831 C.3     1  UNL1        0.0769
     10 C         137.8116  138.9295  161.5918 C.3     1  UNL1        0.0433
     11 C         137.7099  140.1401  164.3348 C.3     1  UNL1        0.0305
     12 C         137.9941  141.0057  163.1431 C.ar    1  UNL1       -0.0260
     13 C         138.0449  140.4003  161.7715 C.ar    1  UNL1       -0.0249
     14 C         138.3291  141.2657  160.5798 C.ar    1  UNL1       -0.0043
     15 C         138.5624  142.7365  160.7595 C.ar    1  UNL1        0.0059
     16 C         138.5116  143.3419  162.1310 C.ar    1  UNL1        0.0748
     17 C         138.2274  142.4765  163.3228 C.ar    1  UNL1        0.0233
     18 C         138.2398  143.3490  164.5428 C.3     1  UNL1        0.2352
     19 O         138.5317  144.7537  164.1051 O.3     1  UNL1       -0.4404
     20 C         138.6996  144.7493  162.6145 C.2     1  UNL1        0.3413
     21 O         139.0024  145.9428  161.7579 O.2     1  UNL1       -0.2449
     22 C         143.6897  138.5769  166.4541 C.3     1  UNL1        0.1131
     23 C         142.9031  139.5414  167.2912 C.ar    1  UNL1        0.0062
     24 C         142.4318  139.1379  168.6569 C.ar    1  UNL1        0.0009
     25 C         141.6451  140.1025  169.4942 C.ar    1  UNL1        0.0386
     26 C         141.3299  141.4705  168.9658 C.ar    1  UNL1        0.1672
     27 N         141.8013  141.8739  167.6001 N.ar    1  UNL1       -0.2252
     28 C         142.5879  140.9094  166.7628 C.ar    1  UNL1        0.0968
     29 N         140.5433  142.4350  169.8029 N.ar    1  UNL1       -0.1708
     30 C         140.5992  143.9311  169.7114 C.ar    1  UNL1        0.2272
     31 N         139.6531  144.4935  170.7306 N.ar    1  UNL1       -0.1044
     32 N         139.0124  143.3449  171.4520 N.ar    1  UNL1       -0.0222
     33 N         139.5627  142.0727  170.8786 N.ar    1  UNL1       -0.0371
@<TRIPOS>BOND
     1    11    12    1
     2    12    13   ar
     3    13    10    1
     4    10     9    1
     5     9     1    1
     6     1     2    1
     7     2     3    1
     8     3     4    1
     9     4     5   am
    10     5     6    2
    11     5    22    1
    12    22    23    1
    13    23    24   ar
    14    24    25   ar
    15    25    26   ar
    16    26    29    1
    17    29    30   ar
    18    30    31   ar
    19    31    32   ar
    20    32    33   ar
    21    26    27   ar
    22    27    28   ar
    23     4     7    1
    24     7     8    1
    25    13    14   ar
    26    14    15   ar
    27    15    16   ar
    28    16    17   ar
    29    17    18    1
    30    18    19    1
    31    19    20    1
    32    20    21    2
    33    17    12   ar
    34     8     1    1
    35    20    16    1
    36    28    23   ar
    37    33    29   ar
@<TRIPOS>MOLECULE
*****
 33 37 0 0 0
SMALL
GASTEIGER

@<TRIPOS>ATOM
      1 N         142.9413  141.3228  161.1312 N.3     1  UNL1       -0.2695
      2 C         143.4894  141.3906  162.5258 C.3     1  UNL1        0.0939
      3 C         143.1780  140.3003  163.5079 C.3     1  UNL1        0.1107
      4 N         142.3184  139.1423  163.0953 N.am    1  UNL1       -0.2764
      5 C         142.0070  138.0521  164.0774 C.2     1  UNL1        0.2302
      6 O         141.1474  136.8941  163.6649 O.2     1  UNL1       -0.2745
      7 C         141.7703  139.0746  161.7007 C.3     1  UNL1        0.1107
      8 C         142.0817  140.1648  160.7187 C.3     1  UNL1        0.0939
      9 C         143.2527  142.4130  160.1491 C.3     1  UNL1        0.0769
     10 C         142.4591  143.6858  160.1649 C.3     1  UNL1        0.0433
     11 C         139.5983  142.7878  160.0661 C.3     1  UNL1        0.0305
     12 C         140.1094  143.5333  161.2632 C.ar    1  UNL1       -0.0260
     13 C         141.5398  143.9824  161.3126 C.ar    1  UNL1       -0.0249
     14 C         142.0509  144.7278  162.5096 C.ar    1  UNL1       -0.0043
     15 C         141.1317  145.0244  163.6573 C.ar    1  UNL1        0.0059
     16 C         139.7014  144.5754  163.6079 C.ar    1  UNL1        0.0748
     17 C         139.1902  143.8299  162.4108 C.ar    1  UNL1        0.0233
     18 C         137.7421  143.5158  162.6439 C.3     1  UNL1        0.2352
     19 O         137.3583  144.0672  163.9850 O.3     1  UNL1       -0.4404
     20 C         138.5692  144.7221  164.5808 C.2     1  UNL1        0.3413
     21 O         138.6361  145.4039  165.9152 O.2     1  UNL1       -0.2449
     22 C         142.5552  138.1199  165.4720 C.3     1  UNL1        0.1131
     23 C         142.0032  139.1171  166.4471 C.ar    1  UNL1        0.0062
     24 C         142.8480  139.5939  167.5912 C.ar    1  UNL1        0.0009
     25 C         142.2960  140.5912  168.5664 C.ar    1  UNL1        0.0386
     26 C         140.8994  141.1117  168.3974 C.ar    1  UNL1        0.1672
     27 N         140.0548  140.6348  167.2532 N.ar    1  UNL1       -0.2252
     28 C         140.6066  139.6376  166.2780 C.ar    1  UNL1        0.0968
     29 N         140.3475  142.1089  169.3725 N.ar    1  UNL1       -0.1708
     30 C         140.5835  143.5900  169.3477 C.ar    1  UNL1        0.2272
     31 N         139.8445  144.1966  170.5034 N.ar    1  UNL1       -0.1044
     32 N         139.1516  143.0903  171.2426 N.ar    1  UNL1       -0.0222
     33 N         139.4625  141.8001  170.5435 N.ar    1  UNL1       -0.0371
@<TRIPOS>BOND
     1    11    12    1
     2    12    13   ar
     3    13    10    1
     4    10     9    1
     5     9     1    1
     6     1     2    1
     7     2     3    1
     8     3     4    1
     9     4     5   am
    10     5     6    2
    11     5    22    1
    12    22    23    1
    13    23    24   ar
    14    24    25   ar
    15    25    26   ar
    16    26    29    1
    17    29    30   ar
    18    30    31   ar
    19    31    32   ar
    20    32    33   ar
    21    26    27   ar
    22    27    28   ar
    23     4     7    1
    24     7     8    1
    25    13    14   ar
    26    14    15   ar
    27    15    16   ar
    28    16    17   ar
    29    17    18    1
    30    18    19    1
    31    19    20    1
    32    20    21    2
    33    17    12   ar
    34     8     1    1
    35    20    16    1
    36    28    23   ar
    37    33    29   ar
@<TRIPOS>MOLECULE
*****
 33 37 0 0 0
SMALL
GASTEIGER

@<TRIPOS>ATOM
      1 N         138.6414  140.3634  160.1718 N.3     1  UNL1       -0.2695
      2 C         137.7834  140.3140  161.4013 C.3     1  UNL1        0.0939
      3 C         138.1447  139.3962  162.5315 C.3     1  UNL1        0.1107
      4 N         139.3638  138.5279  162.4323 N.am    1  UNL1       -0.2764
      5 C         139.7249  137.6102  163.5625 C.2     1  UNL1        0.2302
      6 O         140.9440  136.7419  163.4633 O.2     1  UNL1       -0.2745
      7 C         140.2217  138.5774  161.2028 C.3     1  UNL1        0.1107
      8 C         139.8605  139.4951  160.0726 C.3     1  UNL1        0.0939
      9 C         138.2802  141.2811  159.0416 C.3     1  UNL1        0.0769
     10 C         138.5685  142.7494  159.1464 C.3     1  UNL1        0.0433
     11 C         138.0659  143.6234  161.9719 C.3     1  UNL1        0.0305
     12 C         139.4555  143.6685  161.4088 C.ar    1  UNL1       -0.0260
     13 C         139.7069  143.2315  159.9960 C.ar    1  UNL1       -0.0249
     14 C         141.0963  143.2766  159.4329 C.ar    1  UNL1       -0.0043
     15 C         142.2346  143.7587  160.2825 C.ar    1  UNL1        0.0059
     16 C         141.9834  144.1957  161.6953 C.ar    1  UNL1        0.0748
     17 C         140.5938  144.1506  162.2584 C.ar    1  UNL1        0.0233
     18 C         140.6515  144.6413  163.6747 C.3     1  UNL1        0.2352
     19 O         142.0767  144.9897  163.9869 O.3     1  UNL1       -0.4404
     20 C         142.8998  144.7143  162.7635 C.2     1  UNL1        0.3413
     21 O         144.3796  144.9212  162.6316 O.2     1  UNL1       -0.2449
     22 C         138.8669  137.5608  164.7919 C.3     1  UNL1        0.1131
     23 C         139.1548  138.4764  165.9445 C.ar    1  UNL1        0.0062
     24 C         140.4128  139.2933  165.9573 C.ar    1  UNL1        0.0009
     25 C         140.7008  140.2090  167.1101 C.ar    1  UNL1        0.0386
     26 C         139.7308  140.3078  168.2499 C.ar    1  UNL1        0.1672
     27 N         138.4727  139.4909  168.2370 N.ar    1  UNL1       -0.2252
     28 C         138.1848  138.5752  167.0844 C.ar    1  UNL1        0.0968
     29 N         140.0186  141.2235  169.4026 N.ar    1  UNL1       -0.1708
     30 C         140.4496  142.6568  169.3037 C.ar    1  UNL1        0.2272
     31 N         140.6234  143.1856  170.6966 N.ar    1  UNL1       -0.1044
     32 N         140.2999  142.0791  171.6563 N.ar    1  UNL1       -0.0222
     33 N         139.9261  140.8665  170.8565 N.ar    1  UNL1       -0.0371
@<TRIPOS>BOND
     1    11    12    1
     2    12    13   ar
     3    13    10    1
     4    10     9    1
     5     9     1    1
     6     1     2    1
     7     2     3    1
     8     3     4    1
     9     4     5   am
    10     5     6    2
    11     5    22    1
    12    22    23    1
    13    23    24   ar
    14    24    25   ar
    15    25    26   ar
    16    26    29    1
    17    29    30   ar
    18    30    31   ar
    19    31    32   ar
    20    32    33   ar
    21    26    27   ar
    22    27    28   ar
    23     4     7    1
    24     7     8    1
    25    13    14   ar
    26    14    15   ar
    27    15    16   ar
    28    16    17   ar
    29    17    18    1
    30    18    19    1
    31    19    20    1
    32    20    21    2
    33    17    12   ar
    34     8     1    1
    35    20    16    1
    36    28    23   ar
    37    33    29   ar
@<TRIPOS>MOLECULE
*****
 33 37 0 0 0
SMALL
GASTEIGER

@<TRIPOS>ATOM
      1 N         142.2279  142.1684  159.7837 N.3     1  UNL1       -0.2695
      2 C         141.8556  140.9723  160.6089 C.3     1  UNL1        0.0939
      3 C         142.7558  140.5178  161.7194 C.3     1  UNL1        0.1107
      4 N         144.0281  141.2592  162.0047 N.am    1  UNL1       -0.2764
      5 C         144.9282  140.8046  163.1152 C.2     1  UNL1        0.2302
      6 O         146.2006  141.5460  163.4005 O.2     1  UNL1       -0.2745
      7 C         144.4003  142.4552  161.1795 C.3     1  UNL1        0.1107
      8 C         143.5002  142.9098  160.0690 C.3     1  UNL1        0.0939
      9 C         141.3278  142.6230  158.6733 C.3     1  UNL1        0.0769
     10 C         140.2202  143.5944  158.9556 C.3     1  UNL1        0.0433
     11 C         138.3130  141.7004  160.2883 C.3     1  UNL1        0.0305
     12 C         138.8283  142.8951  161.0350 C.ar    1  UNL1       -0.0260
     13 C         139.7819  143.8421  160.3686 C.ar    1  UNL1       -0.0249
     14 C         140.2971  145.0366  161.1152 C.ar    1  UNL1       -0.0043
     15 C         139.8588  145.2843  162.5282 C.ar    1  UNL1        0.0059
     16 C         138.9052  144.3374  163.1946 C.ar    1  UNL1        0.0748
     17 C         138.3900  143.1428  162.4480 C.ar    1  UNL1        0.0233
     18 C         137.4665  142.3896  163.3590 C.3     1  UNL1        0.2352
     19 O         137.4110  143.1188  164.6686 O.3     1  UNL1       -0.4404
     20 C         138.3002  144.3226  164.5670 C.2     1  UNL1        0.3413
     21 O         138.5418  145.3339  165.6481 O.2     1  UNL1       -0.2449
     22 C         144.5559  139.6085  163.9404 C.3     1  UNL1        0.1131
     23 C         143.8695  139.7930  165.2612 C.ar    1  UNL1        0.0062
     24 C         143.3112  141.1340  165.6354 C.ar    1  UNL1        0.0009
     25 C         142.6247  141.3186  166.9563 C.ar    1  UNL1        0.0386
     26 C         142.4964  140.1621  167.9030 C.ar    1  UNL1        0.1672
     27 N         143.0547  138.8211  167.5287 N.ar    1  UNL1       -0.2252
     28 C         143.7412  138.6365  166.2078 C.ar    1  UNL1        0.0968
     29 N         141.8099  140.3466  169.2238 N.ar    1  UNL1       -0.1708
     30 C         142.3118  141.1731  170.3705 C.ar    1  UNL1        0.2272
     31 N         141.3131  141.0742  171.4852 N.ar    1  UNL1       -0.1044
     32 N         140.1938  140.1865  171.0275 N.ar    1  UNL1       -0.0222
     33 N         140.5010  139.7369  169.6298 N.ar    1  UNL1       -0.0371
@<TRIPOS>BOND
     1    11    12    1
     2    12    13   ar
     3    13    10    1
     4    10     9    1
     5     9     1    1
     6     1     2    1
     7     2     3    1
     8     3     4    1
     9     4     5   am
    10     5     6    2
    11     5    22    1
    12    22    23    1
    13    23    24   ar
    14    24    25   ar
    15    25    26   ar
    16    26    29    1
    17    29    30   ar
    18    30    31   ar
    19    31    32   ar
    20    32    33   ar
    21    26    27   ar
    22    27    28   ar
    23     4     7    1
    24     7     8    1
    25    13    14   ar
    26    14    15   ar
    27    15    16   ar
    28    16    17   ar
    29    17    18    1
    30    18    19    1
    31    19    20    1
    32    20    21    2
    33    17    12   ar
    34     8     1    1
    35    20    16    1
    36    28    23   ar
    37    33    29   ar
@<TRIPOS>MOLECULE
*****
 33 37 0 0 0
SMALL
GASTEIGER

@<TRIPOS>ATOM
      1 N         141.7142  139.8146  160.7028 N.3     1  UNL1       -0.2695
      2 C         141.6138  139.0322  161.9786 C.3     1  UNL1        0.0939
      3 C         140.4111  139.1884  162.8615 C.3     1  UNL1        0.1107
      4 N         139.3090  140.1270  162.4686 N.am    1  UNL1       -0.2764
      5 C         138.1065  140.2831  163.3515 C.2     1  UNL1        0.2302
      6 O         137.0044  141.2217  162.9586 O.2     1  UNL1       -0.2745
      7 C         139.4095  140.9094  161.1927 C.3     1  UNL1        0.1107
      8 C         140.6121  140.7532  160.3099 C.3     1  UNL1        0.0939
      9 C         142.9167  139.6585  159.8199 C.3     1  UNL1        0.0769
     10 C         144.1268  140.5165  160.0422 C.3     1  UNL1        0.0433
     11 C         143.0934  143.3323  160.1040 C.3     1  UNL1        0.0305
     12 C         143.7311  142.7404  161.3260 C.ar    1  UNL1       -0.0260
     13 C         144.2478  141.3325  161.2951 C.ar    1  UNL1       -0.0249
     14 C         144.8855  140.7407  162.5169 C.ar    1  UNL1       -0.0043
     15 C         145.0065  141.5566  163.7698 C.ar    1  UNL1        0.0059
     16 C         144.4898  142.9644  163.8007 C.ar    1  UNL1        0.0748
     17 C         143.8521  143.5564  162.5788 C.ar    1  UNL1        0.0233
     18 C         143.4377  144.9603  162.9061 C.3     1  UNL1        0.2352
     19 O         143.8193  145.2361  164.3303 O.3     1  UNL1       -0.4404
     20 C         144.4695  144.0026  164.8832 C.2     1  UNL1        0.3413
     21 O         145.0054  143.8365  166.2743 O.2     1  UNL1       -0.2449
     22 C         138.0061  139.5007  164.6273 C.3     1  UNL1        0.1131
     23 C         138.6408  140.0256  165.8809 C.ar    1  UNL1        0.0062
     24 C         138.4653  139.2888  167.1756 C.ar    1  UNL1        0.0009
     25 C         139.1000  139.8137  168.4293 C.ar    1  UNL1        0.0386
     26 C         139.9103  141.0754  168.3883 C.ar    1  UNL1        0.1672
     27 N         140.0857  141.8121  167.0935 N.ar    1  UNL1       -0.2252
     28 C         139.4510  141.2873  165.8398 C.ar    1  UNL1        0.0968
     29 N         140.5450  141.6003  169.6418 N.ar    1  UNL1       -0.1708
     30 C         141.7734  142.4580  169.7157 C.ar    1  UNL1        0.2272
     31 N         142.0503  142.7474  171.1612 N.ar    1  UNL1       -0.1044
     32 N         140.9930  142.0687  171.9808 N.ar    1  UNL1       -0.0222
     33 N         140.0627  141.3597  171.0417 N.ar    1  UNL1       -0.0371
@<TRIPOS>BOND
     1    11    12    1
     2    12    13   ar
     3    13    10    1
     4    10     9    1
     5     9     1    1
     6     1     2    1
     7     2     3    1
     8     3     4    1
     9     4     5   am
    10     5     6    2
    11     5    22    1
    12    22    23    1
    13    23    24   ar
    14    24    25   ar
    15    25    26   ar
    16    26    29    1
    17    29    30   ar
    18    30    31   ar
    19    31    32   ar
    20    32    33   ar
    21    26    27   ar
    22    27    28   ar
    23     4     7    1
    24     7     8    1
    25    13    14   ar
    26    14    15   ar
    27    15    16   ar
    28    16    17   ar
    29    17    18    1
    30    18    19    1
    31    19    20    1
    32    20    21    2
    33    17    12   ar
    34     8     1    1
    35    20    16    1
    36    28    23   ar
    37    33    29   ar
@<TRIPOS>MOLECULE
*****
 33 37 0 0 0
SMALL
GASTEIGER

@<TRIPOS>ATOM
      1 N         138.8875  139.7155  160.3392 N.3     1  UNL1       -0.2695
      2 C         138.4231  140.7365  161.3351 C.3     1  UNL1        0.0939
      3 C         138.3363  140.3800  162.7896 C.3     1  UNL1        0.1107
      4 N         138.7138  139.0026  163.2482 N.am    1  UNL1       -0.2764
      5 C         138.6270  138.6463  164.7026 C.2     1  UNL1        0.2302
      6 O         139.0045  137.2689  165.1611 O.2     1  UNL1       -0.2745
      7 C         139.1782  137.9816  162.2521 C.3     1  UNL1        0.1107
      8 C         139.2650  138.3381  160.7977 C.3     1  UNL1        0.0939
      9 C         138.9743  140.0718  158.8848 C.3     1  UNL1        0.0769
     10 C         140.2318  140.6768  158.3346 C.3     1  UNL1        0.0433
     11 C         142.5817  139.3042  159.5973 C.3     1  UNL1        0.0305
     12 C         142.3273  140.7574  159.8685 C.ar    1  UNL1       -0.0260
     13 C         141.1524  141.4438  159.2371 C.ar    1  UNL1       -0.0249
     14 C         140.8980  142.8969  159.5083 C.ar    1  UNL1       -0.0043
     15 C         141.8185  143.6638  160.4108 C.ar    1  UNL1        0.0059
     16 C         142.9934  142.9775  161.0421 C.ar    1  UNL1        0.0748
     17 C         143.2478  141.5243  160.7710 C.ar    1  UNL1        0.0233
     18 C         144.4770  141.1195  161.5294 C.3     1  UNL1        0.2352
     19 O         144.9823  142.3225  162.2693 O.3     1  UNL1       -0.4404
     20 C         144.0654  143.4708  161.9681 C.2     1  UNL1        0.3413
     21 O         144.1973  144.8673  162.4997 O.2     1  UNL1       -0.2449
     22 C         138.1626  139.6673  165.6985 C.3     1  UNL1        0.1131
     23 C         139.1574  140.3586  166.5830 C.ar    1  UNL1        0.0062
     24 C         139.4436  139.8205  167.9536 C.ar    1  UNL1        0.0009
     25 C         140.4384  140.5118  168.8383 C.ar    1  UNL1        0.0386
     26 C         141.1470  141.7413  168.3522 C.ar    1  UNL1        0.1672
     27 N         140.8608  142.2794  166.9816 N.ar    1  UNL1       -0.2252
     28 C         139.8661  141.5881  166.0970 C.ar    1  UNL1        0.0968
     29 N         142.1418  142.4327  169.2367 N.ar    1  UNL1       -0.1708
     30 C         143.6304  142.2516  169.1994 C.ar    1  UNL1        0.2272
     31 N         144.2312  143.1335  170.2535 N.ar    1  UNL1       -0.1044
     32 N         143.1139  143.8598  170.9424 N.ar    1  UNL1       -0.0222
     33 N         141.8227  143.4265  170.3139 N.ar    1  UNL1       -0.0371
@<TRIPOS>BOND
     1    11    12    1
     2    12    13   ar
     3    13    10    1
     4    10     9    1
     5     9     1    1
     6     1     2    1
     7     2     3    1
     8     3     4    1
     9     4     5   am
    10     5     6    2
    11     5    22    1
    12    22    23    1
    13    23    24   ar
    14    24    25   ar
    15    25    26   ar
    16    26    29    1
    17    29    30   ar
    18    30    31   ar
    19    31    32   ar
    20    32    33   ar
    21    26    27   ar
    22    27    28   ar
    23     4     7    1
    24     7     8    1
    25    13    14   ar
    26    14    15   ar
    27    15    16   ar
    28    16    17   ar
    29    17    18    1
    30    18    19    1
    31    19    20    1
    32    20    21    2
    33    17    12   ar
    34     8     1    1
    35    20    16    1
    36    28    23   ar
    37    33    29   ar
@<TRIPOS>MOLECULE
*****
 33 37 0 0 0
SMALL
GASTEIGER

@<TRIPOS>ATOM
      1 N         142.9935  139.7394  160.1061 N.3     1  UNL1       -0.2695
      2 C         143.5792  139.5158  161.4688 C.3     1  UNL1        0.0939
      3 C         142.7379  138.9190  162.5579 C.3     1  UNL1        0.1107
      4 N         141.3110  138.5458  162.2844 N.am    1  UNL1       -0.2764
      5 C         140.4699  137.9491  163.3735 C.2     1  UNL1        0.2302
      6 O         139.0431  137.5759  163.1000 O.2     1  UNL1       -0.2745
      7 C         140.7254  138.7694  160.9216 C.3     1  UNL1        0.1107
      8 C         141.5667  139.3662  159.8325 C.3     1  UNL1        0.0939
      9 C         143.8346  140.3361  159.0169 C.3     1  UNL1        0.0769
     10 C         144.0770  141.8160  158.9820 C.3     1  UNL1        0.0433
     11 C         144.6764  142.8365  161.7388 C.3     1  UNL1        0.0305
     12 C         143.4185  143.2594  161.0395 C.ar    1  UNL1       -0.0260
     13 C         143.1188  142.7492  159.6611 C.ar    1  UNL1       -0.0249
     14 C         141.8610  143.1721  158.9619 C.ar    1  UNL1       -0.0043
     15 C         140.9028  144.1052  159.6409 C.ar    1  UNL1        0.0059
     16 C         141.2025  144.6154  161.0193 C.ar    1  UNL1        0.0748
     17 C         142.4603  144.1926  161.7186 C.ar    1  UNL1        0.0233
     18 C         142.4874  144.8544  163.0644 C.3     1  UNL1        0.2352
     19 O         141.2464  145.6863  163.1969 O.3     1  UNL1       -0.4404
     20 C         140.4522  145.5387  161.9329 C.2     1  UNL1        0.3413
     21 O         139.1384  146.1984  161.6350 O.2     1  UNL1       -0.2449
     22 C         141.0556  137.7255  164.7363 C.3     1  UNL1        0.1131
     23 C         140.8436  138.7412  165.8194 C.ar    1  UNL1        0.0062
     24 C         139.4536  139.1773  166.1770 C.ar    1  UNL1        0.0009
     25 C         139.2416  140.1931  167.2602 C.ar    1  UNL1        0.0386
     26 C         140.4195  140.7728  167.9859 C.ar    1  UNL1        0.1672
     27 N         141.8094  140.3366  167.6283 N.ar    1  UNL1       -0.2252
     28 C         142.0215  139.3209  166.5451 C.ar    1  UNL1        0.0968
     29 N         140.2075  141.7885  169.0690 N.ar    1  UNL1       -0.1708
     30 C         140.4155  143.2686  168.9428 C.ar    1  UNL1        0.2272
     31 N         140.0869  143.8973  170.2644 N.ar    1  UNL1       -0.1044
     32 N         139.6757  142.8057  171.2076 N.ar    1  UNL1       -0.0222
     33 N         139.7503  141.5024  170.4687 N.ar    1  UNL1       -0.0371
@<TRIPOS>BOND
     1    11    12    1
     2    12    13   ar
     3    13    10    1
     4    10     9    1
     5     9     1    1
     6     1     2    1
     7     2     3    1
     8     3     4    1
     9     4     5   am
    10     5     6    2
    11     5    22    1
    12    22    23    1
    13    23    24   ar
    14    24    25   ar
    15    25    26   ar
    16    26    29    1
    17    29    30   ar
    18    30    31   ar
    19    31    32   ar
    20    32    33   ar
    21    26    27   ar
    22    27    28   ar
    23     4     7    1
    24     7     8    1
    25    13    14   ar
    26    14    15   ar
    27    15    16   ar
    28    16    17   ar
    29    17    18    1
    30    18    19    1
    31    19    20    1
    32    20    21    2
    33    17    12   ar
    34     8     1    1
    35    20    16    1
    36    28    23   ar
    37    33    29   ar
@<TRIPOS>MOLECULE
*****
 33 37 0 0 0
SMALL
GASTEIGER

@<TRIPOS>ATOM
      1 N         138.7369  140.8586  160.2133 N.3     1  UNL1       -0.2695
      2 C         137.8144  140.9092  161.3951 C.3     1  UNL1        0.0939
      3 C         138.0425  139.9972  162.5640 C.3     1  UNL1        0.1107
      4 N         139.1928  139.0347  162.5512 N.am    1  UNL1       -0.2764
      5 C         139.4208  138.1227  163.7201 C.2     1  UNL1        0.2302
      6 O         140.5711  137.1602  163.7073 O.2     1  UNL1       -0.2745
      7 C         140.1153  138.9842  161.3694 C.3     1  UNL1        0.1107
      8 C         139.8873  139.8961  160.2005 C.3     1  UNL1        0.0939
      9 C         138.5090  141.7706  159.0444 C.3     1  UNL1        0.0769
     10 C         139.3354  143.0128  158.8900 C.3     1  UNL1        0.0433
     11 C         142.1999  142.1668  158.6078 C.3     1  UNL1        0.0305
     12 C         141.7670  142.9618  159.8040 C.ar    1  UNL1       -0.0260
     13 C         140.3348  143.3848  159.9451 C.ar    1  UNL1       -0.0249
     14 C         139.9019  144.1797  161.1411 C.ar    1  UNL1       -0.0043
     15 C         140.9011  144.5517  162.1961 C.ar    1  UNL1        0.0059
     16 C         142.3333  144.1287  162.0551 C.ar    1  UNL1        0.0748
     17 C         142.7662  143.3338  160.8590 C.ar    1  UNL1        0.0233
     18 C         144.2351  143.0601  160.9912 C.3     1  UNL1        0.2352
     19 O         144.7100  143.6859  162.2690 O.3     1  UNL1       -0.4404
     20 C         143.5346  144.3464  162.9266 C.2     1  UNL1        0.3413
     21 O         143.5567  145.0933  164.2272 O.2     1  UNL1       -0.2449
     22 C         138.4983  138.1733  164.9019 C.3     1  UNL1        0.1131
     23 C         138.9214  138.8832  166.1536 C.ar    1  UNL1        0.0062
     24 C         140.1806  139.6983  166.1644 C.ar    1  UNL1        0.0009
     25 C         140.6038  140.4083  167.4162 C.ar    1  UNL1        0.0386
     26 C         139.7677  140.3032  168.6572 C.ar    1  UNL1        0.1672
     27 N         138.5085  139.4882  168.6463 N.ar    1  UNL1       -0.2252
     28 C         138.0853  138.7782  167.3946 C.ar    1  UNL1        0.0968
     29 N         140.1908  141.0132  169.9089 N.ar    1  UNL1       -0.1708
     30 C         141.4736  140.7955  170.6554 C.ar    1  UNL1        0.2272
     31 N         141.4809  141.7132  171.8418 N.ar    1  UNL1       -0.1044
     32 N         140.2027  142.4982  171.8286 N.ar    1  UNL1       -0.0222
     33 N         139.4054  142.0655  170.6340 N.ar    1  UNL1       -0.0371
@<TRIPOS>BOND
     1    11    12    1
     2    12    13   ar
     3    13    10    1
     4    10     9    1
     5     9     1    1
     6     1     2    1
     7     2     3    1
     8     3     4    1
     9     4     5   am
    10     5     6    2
    11     5    22    1
    12    22    23    1
    13    23    24   ar
    14    24    25   ar
    15    25    26   ar
    16    26    29    1
    17    29    30   ar
    18    30    31   ar
    19    31    32   ar
    20    32    33   ar
    21    26    27   ar
    22    27    28   ar
    23     4     7    1
    24     7     8    1
    25    13    14   ar
    26    14    15   ar
    27    15    16   ar
    28    16    17   ar
    29    17    18    1
    30    18    19    1
    31    19    20    1
    32    20    21    2
    33    17    12   ar
    34     8     1    1
    35    20    16    1
    36    28    23   ar
    37    33    29   ar
@<TRIPOS>MOLECULE
*****
 33 37 0 0 0
SMALL
GASTEIGER

@<TRIPOS>ATOM
      1 N         140.0371  141.8197  160.6773 N.3     1  UNL1       -0.2695
      2 C         139.0842  141.7694  161.8346 C.3     1  UNL1        0.0939
      3 C         138.9739  140.5228  162.6616 C.3     1  UNL1        0.1107
      4 N         139.8165  139.3266  162.3313 N.am    1  UNL1       -0.2764
      5 C         139.7061  138.0800  163.1583 C.2     1  UNL1        0.2302
      6 O         140.5487  136.8838  162.8280 O.2     1  UNL1       -0.2745
      7 C         140.7694  139.3770  161.1739 C.3     1  UNL1        0.1107
      8 C         140.8797  140.6235  160.3470 C.3     1  UNL1        0.0939
      9 C         140.1475  143.0663  159.8503 C.3     1  UNL1        0.0769
     10 C         141.2640  144.0361  160.1007 C.3     1  UNL1        0.0433
     11 C         143.7146  142.3056  160.0782 C.3     1  UNL1        0.0305
     12 C         143.3296  143.0442  161.3256 C.ar    1  UNL1       -0.0260
     13 C         142.1043  143.9095  161.3370 C.ar    1  UNL1       -0.0249
     14 C         141.7192  144.6482  162.5843 C.ar    1  UNL1       -0.0043
     15 C         142.5594  144.5216  163.8205 C.ar    1  UNL1        0.0059
     16 C         143.7846  143.6564  163.8092 C.ar    1  UNL1        0.0748
     17 C         144.1697  142.9177  162.5618 C.ar    1  UNL1        0.0233
     18 C         145.4228  142.1448  162.8489 C.3     1  UNL1        0.2352
     19 O         145.8122  142.4059  164.2737 O.3     1  UNL1       -0.4404
     20 C         144.7997  143.3401  164.8673 C.2     1  UNL1        0.3413
     21 O         144.8020  143.8656  166.2722 O.2     1  UNL1       -0.2449
     22 C         138.7532  138.0297  164.3156 C.3     1  UNL1        0.1131
     23 C         139.1065  138.7044  165.6078 C.ar    1  UNL1        0.0062
     24 C         138.0681  138.8652  166.6783 C.ar    1  UNL1        0.0009
     25 C         138.4214  139.5400  167.9706 C.ar    1  UNL1        0.0386
     26 C         139.8131  140.0538  168.1925 C.ar    1  UNL1        0.1672
     27 N         140.8514  139.8929  167.1220 N.ar    1  UNL1       -0.2252
     28 C         140.4982  139.2182  165.8297 C.ar    1  UNL1        0.0968
     29 N         140.1664  140.7285  169.4847 N.ar    1  UNL1       -0.1708
     30 C         140.6504  142.1398  169.6389 C.ar    1  UNL1        0.2272
     31 N         140.8809  142.3938  171.0992 N.ar    1  UNL1       -0.1044
     32 N         140.5393  141.1394  171.8475 N.ar    1  UNL1       -0.0222
     33 N         140.0977  140.1102  170.8496 N.ar    1  UNL1       -0.0371
@<TRIPOS>BOND
     1    11    12    1
     2    12    13   ar
     3    13    10    1
     4    10     9    1
     5     9     1    1
     6     1     2    1
     7     2     3    1
     8     3     4    1
     9     4     5   am
    10     5     6    2
    11     5    22    1
    12    22    23    1
    13    23    24   ar
    14    24    25   ar
    15    25    26   ar
    16    26    29    1
    17    29    30   ar
    18    30    31   ar
    19    31    32   ar
    20    32    33   ar
    21    26    27   ar
    22    27    28   ar
    23     4     7    1
    24     7     8    1
    25    13    14   ar
    26    14    15   ar
    27    15    16   ar
    28    16    17   ar
    29    17    18    1
    30    18    19    1
    31    19    20    1
    32    20    21    2
    33    17    12   ar
    34     8     1    1
    35    20    16    1
    36    28    23   ar
    37    33    29   ar
