@<TRIPOS>MOLECULE
*****
 29 30 0 0 0
SMALL
GASTEIGER

@<TRIPOS>ATOM
      1 C         140.2612  141.5156  167.6453 C.2     1  UNL1        0.0709
      2 C         139.4919  140.4409  168.3546 C.2     1  UNL1        0.0283
      3 C         139.2308  140.5531  169.8275 C.3     1  UNL1        0.0470
      4 N         138.9837  139.2540  167.5911 N.pl3   1  UNL1       -0.3192
      5 C         139.2448  139.1417  166.1183 C.2     1  UNL1        0.0283
      6 C         138.7366  137.9548  165.3548 C.3     1  UNL1        0.0470
      7 C         140.0141  140.2164  165.4090 C.2     1  UNL1        0.0709
      8 C         140.5223  141.4033  166.1725 C.3     1  UNL1        0.0872
      9 H         138.4787  138.5486  168.0567 H       1  UNL1        0.1516
     10 C         141.2917  142.4780  165.4631 C.ar    1  UNL1        0.0554
     11 C         142.7796  142.3608  165.3132 C.ar    1  UNL1        0.0024
     12 C         143.5489  143.4355  164.6038 C.ar    1  UNL1        0.0001
     13 C         142.8304  144.6274  164.0444 C.ar    1  UNL1        0.0063
     14 C         141.3425  144.7446  164.1943 C.ar    1  UNL1        0.0749
     15 C         140.5732  143.6699  164.9036 C.ar    1  UNL1        0.2866
     16 N         139.0852  143.7872  165.0536 N.pl3   1  UNL1        0.0806
     17 O         137.9252  142.9341  164.6334 O.2     1  UNL1        0.0415
     18 O         138.4936  144.9708  165.7598 O.co2   1  UNL1       -0.5760
     19 C         140.7695  142.7025  168.4088 C.2     1  UNL1        0.3388
     20 O         140.4416  143.3883  168.6489 O.2     1  UNL1       -0.2452
     21 C         142.9275  141.4527  169.1372 C.3     1  UNL1        0.2559
     22 O         142.1915  142.7351  168.8850 O.3     1  UNL1       -0.4415
     23 C         140.2753  140.1042  163.9361 C.2     1  UNL1        0.3387
     24 O         139.2149  140.5047  162.9538 O.2     1  UNL1       -0.2452
     25 O         141.5968  139.5914  163.4457 O.3     1  UNL1       -0.4456
     26 C         142.2982  138.4938  164.1894 C.3     1  UNL1        0.2086
     27 C         143.4295  138.8211  165.1184 C.3     1  UNL1        0.0439
     28 C         143.2503  138.6720  166.6002 C.3     1  UNL1        0.0038
     29 C         144.7400  139.2976  164.5656 C.3     1  UNL1        0.0038
@<TRIPOS>UNITY_ATOM_ATTR
16 1
charge 1
18 1
charge -1
@<TRIPOS>BOND
     1    21    22    1
     2    22    19    1
     3    19    20    2
     4    19     1    1
     5     1     2    2
     6     2     3    1
     7     2     4    1
     8     4     5    1
     9     5     6    1
    10     5     7    2
    11     7    23    1
    12    23    24    2
    13    23    25    1
    14    25    26    1
    15    26    27    1
    16    27    28    1
    17    27    29    1
    18     7     8    1
    19     8    10    1
    20    10    11   ar
    21    11    12   ar
    22    12    13   ar
    23    13    14   ar
    24    14    15   ar
    25    15    16    1
    26    16    17    2
    27    16    18    1
    28     8     1    1
    29    15    10   ar
    30     4     9    1
@<TRIPOS>MOLECULE
*****
 29 30 0 0 0
SMALL
GASTEIGER

@<TRIPOS>ATOM
      1 C         141.2839  140.8057  166.9512 C.2     1  UNL1        0.0709
      2 C         142.3620  139.8312  167.3225 C.2     1  UNL1        0.0283
      3 C         142.5363  139.4146  168.7530 C.3     1  UNL1        0.0470
      4 N         143.2658  139.2731  166.2634 N.pl3   1  UNL1       -0.3192
      5 C         143.0915  139.6897  164.8330 C.2     1  UNL1        0.0283
      6 C         143.9954  139.1317  163.7739 C.3     1  UNL1        0.0470
      7 C         142.0134  140.6642  164.4617 C.2     1  UNL1        0.0709
      8 C         141.1096  141.2223  165.5208 C.3     1  UNL1        0.0872
      9 H         143.9734  138.6335  166.5071 H       1  UNL1        0.1516
     10 C         140.0315  142.1969  165.1495 C.ar    1  UNL1        0.0554
     11 C         140.3128  143.6701  165.1694 C.ar    1  UNL1        0.0024
     12 C         139.2347  144.6447  164.7980 C.ar    1  UNL1        0.0001
     13 C         137.8752  144.1460  164.4068 C.ar    1  UNL1        0.0063
     14 C         137.5939  142.6727  164.3868 C.ar    1  UNL1        0.0749
     15 C         138.6720  141.6982  164.7582 C.ar    1  UNL1        0.2866
     16 N         138.3906  140.2249  164.7382 N.pl3   1  UNL1        0.0806
     17 O         138.4289  139.1710  163.6715 O.2     1  UNL1        0.0415
     18 O         137.9686  139.5249  165.9960 O.co2   1  UNL1       -0.5760
     19 C         140.3800  141.3637  168.0103 C.2     1  UNL1        0.3388
     20 O         139.7271  141.0939  168.3796 O.2     1  UNL1       -0.2452
     21 C         140.2982  143.0110  170.0178 C.3     1  UNL1        0.2559
     22 O         140.6513  142.7207  168.5891 O.3     1  UNL1       -0.4415
     23 C         141.8391  141.0808  163.0313 C.2     1  UNL1        0.3387
     24 O         141.0815  140.2016  162.0810 O.2     1  UNL1       -0.2452
     25 O         142.4225  142.3767  162.5511 O.3     1  UNL1       -0.4456
     26 C         143.7766  142.8118  163.0275 C.3     1  UNL1        0.2086
     27 C         143.8950  143.8030  164.1471 C.3     1  UNL1        0.0439
     28 C         144.3748  143.3566  165.4964 C.3     1  UNL1        0.0038
     29 C         143.5337  145.2406  163.9174 C.3     1  UNL1        0.0038
@<TRIPOS>UNITY_ATOM_ATTR
16 1
charge 1
18 1
charge -1
@<TRIPOS>BOND
     1    21    22    1
     2    22    19    1
     3    19    20    2
     4    19     1    1
     5     1     2    2
     6     2     3    1
     7     2     4    1
     8     4     5    1
     9     5     6    1
    10     5     7    2
    11     7    23    1
    12    23    24    2
    13    23    25    1
    14    25    26    1
    15    26    27    1
    16    27    28    1
    17    27    29    1
    18     7     8    1
    19     8    10    1
    20    10    11   ar
    21    11    12   ar
    22    12    13   ar
    23    13    14   ar
    24    14    15   ar
    25    15    16    1
    26    16    17    2
    27    16    18    1
    28     8     1    1
    29    15    10   ar
    30     4     9    1
@<TRIPOS>MOLECULE
*****
 29 30 0 0 0
SMALL
GASTEIGER

@<TRIPOS>ATOM
      1 C         141.8499  142.4065  167.5242 C.2     1  UNL1        0.0709
      2 C         140.7257  143.1748  168.1533 C.2     1  UNL1        0.0283
      3 C         140.7256  143.4284  169.6318 C.3     1  UNL1        0.0470
      4 N         139.6015  143.6894  167.3041 N.pl3   1  UNL1       -0.3192
      5 C         139.6015  143.4359  165.8257 C.2     1  UNL1        0.0283
      6 C         138.4773  143.9505  164.9764 C.3     1  UNL1        0.0470
      7 C         140.7257  142.6676  165.1966 C.2     1  UNL1        0.0709
      8 C         141.8500  142.1530  166.0458 C.3     1  UNL1        0.0872
      9 H         138.8636  144.1937  167.7170 H       1  UNL1        0.1516
     10 C         142.9742  141.3847  165.4167 C.ar    1  UNL1        0.0554
     11 C         142.8728  139.8958  165.2653 C.ar    1  UNL1        0.0024
     12 C         143.9971  139.1275  164.6362 C.ar    1  UNL1        0.0001
     13 C         145.2228  139.8482  164.1583 C.ar    1  UNL1        0.0063
     14 C         145.3242  141.3372  164.3096 C.ar    1  UNL1        0.0749
     15 C         144.1999  142.1053  164.9388 C.ar    1  UNL1        0.2866
     16 N         144.3013  143.5943  165.0901 N.pl3   1  UNL1        0.0806
     17 O         143.7216  144.7594  164.3441 O.2     1  UNL1        0.0415
     18 O         145.1347  144.1813  166.1905 O.co2   1  UNL1       -0.5760
     19 C         142.9742  141.8919  168.3735 C.2     1  UNL1        0.3388
     20 O         143.6448  142.2144  168.6593 O.2     1  UNL1       -0.2452
     21 C         142.6965  140.1811  170.3089 C.3     1  UNL1        0.2559
     22 O         142.9572  140.4734  168.8610 O.3     1  UNL1       -0.4415
     23 C         140.7258  142.4140  163.7181 C.2     1  UNL1        0.3387
     24 O         141.1958  143.4808  162.7742 O.2     1  UNL1       -0.2452
     25 O         140.2559  141.0936  163.1837 O.3     1  UNL1       -0.4456
     26 C         139.0417  140.4364  163.7701 C.3     1  UNL1        0.2086
     27 C         139.1959  139.3796  164.8234 C.3     1  UNL1        0.0439
     28 C         139.6967  138.0158  164.4498 C.3     1  UNL1        0.0038
     29 C         138.8494  139.6865  166.2501 C.3     1  UNL1        0.0038
@<TRIPOS>UNITY_ATOM_ATTR
16 1
charge 1
18 1
charge -1
@<TRIPOS>BOND
     1    21    22    1
     2    22    19    1
     3    19    20    2
     4    19     1    1
     5     1     2    2
     6     2     3    1
     7     2     4    1
     8     4     5    1
     9     5     6    1
    10     5     7    2
    11     7    23    1
    12    23    24    2
    13    23    25    1
    14    25    26    1
    15    26    27    1
    16    27    28    1
    17    27    29    1
    18     7     8    1
    19     8    10    1
    20    10    11   ar
    21    11    12   ar
    22    12    13   ar
    23    13    14   ar
    24    14    15   ar
    25    15    16    1
    26    16    17    2
    27    16    18    1
    28     8     1    1
    29    15    10   ar
    30     4     9    1
@<TRIPOS>MOLECULE
*****
 29 30 0 0 0
SMALL
GASTEIGER

@<TRIPOS>ATOM
      1 C         140.2537  141.5753  167.7456 C.2     1  UNL1        0.0709
      2 C         139.4818  140.5264  168.4898 C.2     1  UNL1        0.0283
      3 C         139.2888  140.6478  169.9724 C.3     1  UNL1        0.0470
      4 N         138.9028  139.3561  167.7514 N.pl3   1  UNL1       -0.3192
      5 C         139.0958  139.2347  166.2689 C.2     1  UNL1        0.0283
      6 C         138.5168  138.0644  165.5305 C.3     1  UNL1        0.0470
      7 C         139.8677  140.2836  165.5247 C.2     1  UNL1        0.0709
      8 C         140.4467  141.4539  166.2630 C.3     1  UNL1        0.0872
      9 H         138.3961  138.6677  168.2399 H       1  UNL1        0.1516
     10 C         141.2187  142.5028  165.5188 C.ar    1  UNL1        0.0554
     11 C         142.6942  142.3381  165.3055 C.ar    1  UNL1        0.0024
     12 C         143.4662  143.3870  164.5613 C.ar    1  UNL1        0.0001
     13 C         142.7626  144.6007  164.0303 C.ar    1  UNL1        0.0063
     14 C         141.2869  144.7654  164.2435 C.ar    1  UNL1        0.0749
     15 C         140.5150  143.7165  164.9878 C.ar    1  UNL1        0.2866
     16 N         139.0393  143.8811  165.2010 N.pl3   1  UNL1        0.0806
     17 O         137.8357  143.0656  164.8321 O.2     1  UNL1        0.0415
     18 O         138.5165  145.0832  165.9302 O.co2   1  UNL1       -0.5760
     19 C         140.8327  142.7456  168.4839 C.2     1  UNL1        0.3388
     20 O         140.5441  143.4513  168.7167 O.2     1  UNL1       -0.2452
     21 C         142.5881  142.9350  170.3898 C.3     1  UNL1        0.2559
     22 O         142.2601  142.7109  168.9434 O.3     1  UNL1       -0.4415
     23 C         140.0607  140.1622  164.0421 C.2     1  UNL1        0.3387
     24 O         141.1243  139.2564  163.4959 O.2     1  UNL1       -0.2452
     25 O         139.1901  140.9466  163.1057 O.3     1  UNL1       -0.4456
     26 C         137.8727  140.3856  162.6592 C.3     1  UNL1        0.2086
     27 C         137.8218  139.3961  161.5330 C.3     1  UNL1        0.0439
     28 C         138.0010  137.9330  161.8115 C.3     1  UNL1        0.0038
     29 C         137.5919  139.8695  160.1284 C.3     1  UNL1        0.0038
@<TRIPOS>UNITY_ATOM_ATTR
16 1
charge 1
18 1
charge -1
@<TRIPOS>BOND
     1    21    22    1
     2    22    19    1
     3    19    20    2
     4    19     1    1
     5     1     2    2
     6     2     3    1
     7     2     4    1
     8     4     5    1
     9     5     6    1
    10     5     7    2
    11     7    23    1
    12    23    24    2
    13    23    25    1
    14    25    26    1
    15    26    27    1
    16    27    28    1
    17    27    29    1
    18     7     8    1
    19     8    10    1
    20    10    11   ar
    21    11    12   ar
    22    12    13   ar
    23    13    14   ar
    24    14    15   ar
    25    15    16    1
    26    16    17    2
    27    16    18    1
    28     8     1    1
    29    15    10   ar
    30     4     9    1
@<TRIPOS>MOLECULE
*****
 29 30 0 0 0
SMALL
GASTEIGER

@<TRIPOS>ATOM
      1 C         141.2321  140.7616  167.1691 C.2     1  UNL1        0.0709
      2 C         142.3266  139.8166  167.5680 C.2     1  UNL1        0.0283
      3 C         142.4412  139.3601  168.9923 C.3     1  UNL1        0.0470
      4 N         143.3064  139.3281  166.5426 N.pl3   1  UNL1       -0.3192
      5 C         143.1918  139.7846  165.1184 C.2     1  UNL1        0.0283
      6 C         144.1716  139.2961  164.0931 C.3     1  UNL1        0.0470
      7 C         142.0973  140.7295  164.7195 C.2     1  UNL1        0.0709
      8 C         141.1174  141.2180  165.7448 C.3     1  UNL1        0.0872
      9 H         144.0247  138.7079  166.8045 H       1  UNL1        0.1516
     10 C         140.0229  142.1630  165.3459 C.ar    1  UNL1        0.0554
     11 C         140.2468  143.6443  165.4202 C.ar    1  UNL1        0.0024
     12 C         139.1523  144.5893  165.0213 C.ar    1  UNL1        0.0001
     13 C         137.8339  144.0529  164.5480 C.ar    1  UNL1        0.0063
     14 C         137.6100  142.5715  164.4736 C.ar    1  UNL1        0.0749
     15 C         138.7045  141.6266  164.8726 C.ar    1  UNL1        0.2866
     16 N         138.4806  140.1452  164.7982 N.pl3   1  UNL1        0.0806
     17 O         138.6440  139.1196  163.7159 O.2     1  UNL1        0.0415
     18 O         137.9846  139.4003  166.0021 O.co2   1  UNL1       -0.5760
     19 C         140.2522  141.2500  168.1944 C.2     1  UNL1        0.3388
     20 O         139.5955  140.9411  168.5242 O.2     1  UNL1       -0.2452
     21 C         140.1069  142.8091  170.2676 C.3     1  UNL1        0.2559
     22 O         140.4305  142.6028  168.8175 O.3     1  UNL1       -0.4415
     23 C         141.9826  141.1860  163.2952 C.2     1  UNL1        0.3387
     24 O         141.3433  140.2955  162.2714 O.2     1  UNL1       -0.2452
     25 O         142.5072  142.5331  162.8949 O.3     1  UNL1       -0.4456
     26 C         142.0315  143.1764  161.6261 C.3     1  UNL1        0.2086
     27 C         140.7092  143.8840  161.5940 C.3     1  UNL1        0.0439
     28 C         139.4534  143.1142  161.3104 C.3     1  UNL1        0.0038
     29 C         140.6428  145.3612  161.8454 C.3     1  UNL1        0.0038
@<TRIPOS>UNITY_ATOM_ATTR
16 1
charge 1
18 1
charge -1
@<TRIPOS>BOND
     1    21    22    1
     2    22    19    1
     3    19    20    2
     4    19     1    1
     5     1     2    2
     6     2     3    1
     7     2     4    1
     8     4     5    1
     9     5     6    1
    10     5     7    2
    11     7    23    1
    12    23    24    2
    13    23    25    1
    14    25    26    1
    15    26    27    1
    16    27    28    1
    17    27    29    1
    18     7     8    1
    19     8    10    1
    20    10    11   ar
    21    11    12   ar
    22    12    13   ar
    23    13    14   ar
    24    14    15   ar
    25    15    16    1
    26    16    17    2
    27    16    18    1
    28     8     1    1
    29    15    10   ar
    30     4     9    1
@<TRIPOS>MOLECULE
*****
 29 30 0 0 0
SMALL
GASTEIGER

@<TRIPOS>ATOM
      1 C         140.4667  140.2704  166.2244 C.2     1  UNL1        0.0709
      2 C         139.0210  139.9227  166.4222 C.2     1  UNL1        0.0283
      3 C         138.5449  139.4245  167.7546 C.3     1  UNL1        0.0470
      4 N         138.0514  140.0732  165.2877 N.pl3   1  UNL1       -0.3192
      5 C         138.5274  140.5714  163.9554 C.2     1  UNL1        0.0283
      6 C         137.5577  140.7219  162.8208 C.3     1  UNL1        0.0470
      7 C         139.9730  140.9191  163.7576 C.2     1  UNL1        0.0709
      8 C         140.9427  140.7686  164.8921 C.3     1  UNL1        0.0872
      9 H         137.1025  139.8450  165.4176 H       1  UNL1        0.1516
     10 C         142.3884  141.1164  164.6942 C.ar    1  UNL1        0.0554
     11 C         142.8625  142.5185  164.9372 C.ar    1  UNL1        0.0024
     12 C         144.3083  142.8663  164.7393 C.ar    1  UNL1        0.0001
     13 C         145.2797  141.8118  164.2985 C.ar    1  UNL1        0.0063
     14 C         144.8055  140.4096  164.0555 C.ar    1  UNL1        0.0749
     15 C         143.3598  140.0619  164.2534 C.ar    1  UNL1        0.2866
     16 N         142.8856  138.6597  164.0104 N.pl3   1  UNL1        0.0806
     17 O         142.2035  137.6284  164.8597 O.2     1  UNL1        0.0415
     18 O         143.0730  138.0274  162.6631 O.co2   1  UNL1       -0.5760
     19 C         141.4363  140.1199  167.3590 C.2     1  UNL1        0.3388
     20 O         141.9463  139.5483  167.5795 O.2     1  UNL1       -0.2452
     21 C         140.9180  142.5415  168.1446 C.3     1  UNL1        0.2559
     22 O         141.5768  141.2139  168.3756 O.3     1  UNL1       -0.4415
     23 C         140.4491  141.4173  162.4252 C.2     1  UNL1        0.3387
     24 O         141.1463  140.4836  161.4808 O.2     1  UNL1       -0.2452
     25 O         140.2279  142.8493  162.0373 O.3     1  UNL1       -0.4456
     26 C         140.2511  143.9224  163.0851 C.3     1  UNL1        0.2086
     27 C         138.9985  144.2645  163.8360 C.3     1  UNL1        0.0439
     28 C         139.0515  144.4960  165.3172 C.3     1  UNL1        0.0038
     29 C         137.6928  144.3752  163.1059 C.3     1  UNL1        0.0038
@<TRIPOS>UNITY_ATOM_ATTR
16 1
charge 1
18 1
charge -1
@<TRIPOS>BOND
     1    21    22    1
     2    22    19    1
     3    19    20    2
     4    19     1    1
     5     1     2    2
     6     2     3    1
     7     2     4    1
     8     4     5    1
     9     5     6    1
    10     5     7    2
    11     7    23    1
    12    23    24    2
    13    23    25    1
    14    25    26    1
    15    26    27    1
    16    27    28    1
    17    27    29    1
    18     7     8    1
    19     8    10    1
    20    10    11   ar
    21    11    12   ar
    22    12    13   ar
    23    13    14   ar
    24    14    15   ar
    25    15    16    1
    26    16    17    2
    27    16    18    1
    28     8     1    1
    29    15    10   ar
    30     4     9    1
@<TRIPOS>MOLECULE
*****
 29 30 0 0 0
SMALL
GASTEIGER

@<TRIPOS>ATOM
      1 C         139.8997  139.1856  162.5741 C.2     1  UNL1        0.0709
      2 C         138.4146  139.2604  162.3765 C.2     1  UNL1        0.0283
      3 C         137.6940  138.1461  161.6771 C.3     1  UNL1        0.0470
      4 N         137.6502  140.4493  162.8784 N.pl3   1  UNL1       -0.3192
      5 C         138.3707  141.5636  163.5779 C.2     1  UNL1        0.0283
      6 C         137.6062  142.7526  164.0797 C.3     1  UNL1        0.0470
      7 C         139.8557  141.4888  163.7754 C.2     1  UNL1        0.0709
      8 C         140.6202  140.2999  163.2735 C.3     1  UNL1        0.0872
      9 H         136.6755  140.4984  162.7487 H       1  UNL1        0.1516
     10 C         142.1053  140.2252  163.4711 C.ar    1  UNL1        0.0554
     11 C         142.6662  139.5909  164.7093 C.ar    1  UNL1        0.0024
     12 C         144.1513  139.5162  164.9069 C.ar    1  UNL1        0.0001
     13 C         145.0754  140.0758  163.8663 C.ar    1  UNL1        0.0063
     14 C         144.5144  140.7100  162.6280 C.ar    1  UNL1        0.0749
     15 C         143.0294  140.7847  162.4305 C.ar    1  UNL1        0.2866
     16 N         142.4684  141.4190  161.1923 N.pl3   1  UNL1        0.0806
     17 O         141.5445  142.5733  160.9398 O.2     1  UNL1        0.0415
     18 O         142.8312  140.8766  159.8416 O.co2   1  UNL1       -0.5760
     19 C         140.6642  137.9966  162.0722 C.2     1  UNL1        0.3388
     20 O         140.8040  137.2665  162.3599 O.2     1  UNL1       -0.2452
     21 C         142.7826  137.5753  160.6285 C.3     1  UNL1        0.2559
     22 O         141.3689  138.0618  160.7497 O.3     1  UNL1       -0.4415
     23 C         140.5763  142.6031  164.4749 C.2     1  UNL1        0.3387
     24 O         140.9111  142.4816  165.9320 O.2     1  UNL1       -0.2452
     25 O         140.9621  143.8389  163.7172 O.3     1  UNL1       -0.4456
     26 C         142.1281  144.6649  164.1733 C.3     1  UNL1        0.2086
     27 C         143.5264  144.1533  163.9915 C.3     1  UNL1        0.0439
     28 C         144.2304  143.4743  165.1288 C.3     1  UNL1        0.0038
     29 C         144.2207  144.3208  162.6725 C.3     1  UNL1        0.0038
@<TRIPOS>UNITY_ATOM_ATTR
16 1
charge 1
18 1
charge -1
@<TRIPOS>BOND
     1    21    22    1
     2    22    19    1
     3    19    20    2
     4    19     1    1
     5     1     2    2
     6     2     3    1
     7     2     4    1
     8     4     5    1
     9     5     6    1
    10     5     7    2
    11     7    23    1
    12    23    24    2
    13    23    25    1
    14    25    26    1
    15    26    27    1
    16    27    28    1
    17    27    29    1
    18     7     8    1
    19     8    10    1
    20    10    11   ar
    21    11    12   ar
    22    12    13   ar
    23    13    14   ar
    24    14    15   ar
    25    15    16    1
    26    16    17    2
    27    16    18    1
    28     8     1    1
    29    15    10   ar
    30     4     9    1
@<TRIPOS>MOLECULE
*****
 29 30 0 0 0
SMALL
GASTEIGER

@<TRIPOS>ATOM
      1 C         141.2682  140.8515  168.5857 C.2     1  UNL1        0.0709
      2 C         140.2502  140.2282  169.4940 C.2     1  UNL1        0.0283
      3 C         140.4422  140.2764  170.9809 C.3     1  UNL1        0.0470
      4 N         139.0400  139.5568  168.9155 N.pl3   1  UNL1       -0.3192
      5 C         138.8480  139.5086  167.4286 C.2     1  UNL1        0.0283
      6 C         137.6378  138.8371  166.8501 C.3     1  UNL1        0.0470
      7 C         139.8660  140.1319  166.5203 C.2     1  UNL1        0.0709
      8 C         141.0762  140.8033  167.0989 C.3     1  UNL1        0.0872
      9 H         138.3718  139.1477  169.5116 H       1  UNL1        0.1516
     10 C         142.0942  141.4266  166.1905 C.ar    1  UNL1        0.0554
     11 C         141.9703  142.8706  165.8039 C.ar    1  UNL1        0.0024
     12 C         142.9884  143.4939  164.8955 C.ar    1  UNL1        0.0001
     13 C         144.1304  142.6731  164.3738 C.ar    1  UNL1        0.0063
     14 C         144.2543  141.2290  164.7604 C.ar    1  UNL1        0.0749
     15 C         143.2362  140.6058  165.6687 C.ar    1  UNL1        0.2866
     16 N         143.3601  139.1618  166.0554 N.pl3   1  UNL1        0.0806
     17 O         143.6146  138.4477  167.3497 O.2     1  UNL1        0.0415
     18 O         143.2192  138.0917  165.0137 O.co2   1  UNL1       -0.5760
     19 C         142.4784  141.5229  169.1643 C.2     1  UNL1        0.3388
     20 O         143.2363  141.3008  169.2725 O.2     1  UNL1       -0.2452
     21 C         141.0535  143.6260  169.7088 C.3     1  UNL1        0.2559
     22 O         142.3786  142.9234  169.6921 O.3     1  UNL1       -0.4415
     23 C         139.6740  140.0837  165.0334 C.2     1  UNL1        0.3387
     24 O         140.3979  139.0548  164.2166 O.2     1  UNL1       -0.2452
     25 O         138.7579  141.0645  164.3634 O.3     1  UNL1       -0.4456
     26 C         139.3089  142.3399  163.7981 C.3     1  UNL1        0.2086
     27 C         138.6168  143.6423  164.0718 C.3     1  UNL1        0.0439
     28 C         137.6952  144.2320  163.0456 C.3     1  UNL1        0.0038
     29 C         138.8463  144.3549  165.3716 C.3     1  UNL1        0.0038
@<TRIPOS>UNITY_ATOM_ATTR
16 1
charge 1
18 1
charge -1
@<TRIPOS>BOND
     1    21    22    1
     2    22    19    1
     3    19    20    2
     4    19     1    1
     5     1     2    2
     6     2     3    1
     7     2     4    1
     8     4     5    1
     9     5     6    1
    10     5     7    2
    11     7    23    1
    12    23    24    2
    13    23    25    1
    14    25    26    1
    15    26    27    1
    16    27    28    1
    17    27    29    1
    18     7     8    1
    19     8    10    1
    20    10    11   ar
    21    11    12   ar
    22    12    13   ar
    23    13    14   ar
    24    14    15   ar
    25    15    16    1
    26    16    17    2
    27    16    18    1
    28     8     1    1
    29    15    10   ar
    30     4     9    1
@<TRIPOS>MOLECULE
*****
 29 30 0 0 0
SMALL
GASTEIGER

@<TRIPOS>ATOM
      1 C         142.7162  141.0237  164.9267 C.2     1  UNL1        0.0709
      2 C         143.7529  141.8885  164.2730 C.2     1  UNL1        0.0283
      3 C         145.1499  141.3746  164.0874 C.3     1  UNL1        0.0470
      4 N         143.3927  143.2674  163.8050 N.pl3   1  UNL1       -0.3192
      5 C         141.9958  143.7813  163.9906 C.2     1  UNL1        0.0283
      6 C         141.6356  145.1602  163.5225 C.3     1  UNL1        0.0470
      7 C         140.9591  142.9165  164.6442 C.2     1  UNL1        0.0709
      8 C         141.3193  141.5377  165.1123 C.3     1  UNL1        0.0872
      9 H         144.0731  143.8350  163.3760 H       1  UNL1        0.1516
     10 C         140.2826  140.6728  165.7659 C.ar    1  UNL1        0.0554
     11 C         139.4114  139.7837  164.9290 C.ar    1  UNL1        0.0024
     12 C         138.3747  138.9188  165.5827 C.ar    1  UNL1        0.0001
     13 C         138.2091  138.9431  167.0733 C.ar    1  UNL1        0.0063
     14 C         139.0803  139.8323  167.9103 C.ar    1  UNL1        0.0749
     15 C         140.1170  140.6971  167.2566 C.ar    1  UNL1        0.2866
     16 N         140.9882  141.5863  168.0935 N.pl3   1  UNL1        0.0806
     17 O         142.4191  141.5229  168.5391 O.2     1  UNL1        0.0415
     18 O         140.4297  142.8509  168.6756 O.co2   1  UNL1       -0.5760
     19 C         143.0764  139.6449  165.3947 C.2     1  UNL1        0.3388
     20 O         143.2986  139.3386  166.0964 O.2     1  UNL1       -0.2452
     21 C         142.5250  138.6928  163.0411 C.3     1  UNL1        0.2559
     22 O         143.0546  138.4960  164.4306 O.3     1  UNL1       -0.4415
     23 C         139.5621  143.4304  164.8298 C.2     1  UNL1        0.3387
     24 O         139.2516  144.3676  165.9591 O.2     1  UNL1       -0.2452
     25 O         138.4757  143.0072  163.8861 O.3     1  UNL1       -0.4456
     26 C         138.7452  142.9447  162.4119 C.3     1  UNL1        0.2086
     27 C         139.0429  141.6274  161.7590 C.3     1  UNL1        0.0439
     28 C         140.4439  141.3008  161.3339 C.3     1  UNL1        0.0038
     29 C         137.9398  140.6369  161.5314 C.3     1  UNL1        0.0038
@<TRIPOS>UNITY_ATOM_ATTR
16 1
charge 1
18 1
charge -1
@<TRIPOS>BOND
     1    21    22    1
     2    22    19    1
     3    19    20    2
     4    19     1    1
     5     1     2    2
     6     2     3    1
     7     2     4    1
     8     4     5    1
     9     5     6    1
    10     5     7    2
    11     7    23    1
    12    23    24    2
    13    23    25    1
    14    25    26    1
    15    26    27    1
    16    27    28    1
    17    27    29    1
    18     7     8    1
    19     8    10    1
    20    10    11   ar
    21    11    12   ar
    22    12    13   ar
    23    13    14   ar
    24    14    15   ar
    25    15    16    1
    26    16    17    2
    27    16    18    1
    28     8     1    1
    29    15    10   ar
    30     4     9    1
