@<TRIPOS>MOLECULE
*****
 18 18 0 0 0
SMALL
GASTEIGER

@<TRIPOS>ATOM
      1 C         137.8696  140.9108  163.7201 C.1     1  UNL1       -0.0727
      2 C         138.1204  140.1103  164.9636 C.1     1  UNL1       -0.0849
      3 C         137.6189  141.7114  162.4766 C.3     1  UNL1        0.1498
      4 N         138.2098  143.0828  162.3356 N.3     1  UNL1       -0.2618
      5 C         139.3426  143.3169  161.3805 C.3     1  UNL1        0.0730
      6 C         140.1993  144.5404  161.5186 C.3     1  UNL1        0.0188
      7 C         137.6680  144.2202  163.1497 C.3     1  UNL1        0.0730
      8 C         137.8385  144.2240  164.6399 C.3     1  UNL1        0.0174
      9 C         139.9388  143.2310  165.8032 C.3     1  UNL1        0.0000
     10 C         139.2015  144.4089  165.2384 C.3     1  UNL1        0.0014
     11 C         138.3711  139.3098  166.2071 C.3     1  UNL1        0.1023
     12 C         139.5229  139.6571  167.1031 C.ar    1  UNL1       -0.0092
     13 C         140.9208  139.6632  166.5594 C.ar    1  UNL1       -0.0036
     14 C         142.0725  140.0105  167.4555 C.ar    1  UNL1       -0.0045
     15 C         141.8263  140.3516  168.8952 C.ar    1  UNL1       -0.0219
     16 C         142.9781  140.6989  169.7913 C.3     1  UNL1        0.0310
     17 C         140.4284  140.3455  169.4389 C.ar    1  UNL1       -0.0045
     18 C         139.2767  139.9982  168.5429 C.ar    1  UNL1       -0.0036
@<TRIPOS>BOND
     1     9    10    1
     2    10     8    1
     3     8     7    1
     4     7     4    1
     5     4     5    1
     6     5     6    1
     7     4     3    1
     8     3     1    1
     9     1     2    3
    10     2    11    1
    11    11    12    1
    12    12    13   ar
    13    13    14   ar
    14    14    15   ar
    15    15    16    1
    16    15    17   ar
    17    17    18   ar
    18    18    12   ar
@<TRIPOS>MOLECULE
*****
 18 18 0 0 0
SMALL
GASTEIGER

@<TRIPOS>ATOM
      1 C         139.1870  139.9557  168.5899 C.1     1  UNL1       -0.0727
      2 C         138.7562  139.4239  167.2551 C.1     1  UNL1       -0.0849
      3 C         139.6177  140.4874  169.9247 C.3     1  UNL1        0.1498
      4 N         140.9482  141.1651  170.0682 N.3     1  UNL1       -0.2618
      5 C         141.0233  142.5642  170.6040 C.3     1  UNL1        0.0730
      6 C         140.5362  143.7132  169.7718 C.3     1  UNL1        0.0188
      7 C         142.2035  140.4438  169.6759 C.3     1  UNL1        0.0730
      8 C         142.7118  140.5347  168.2676 C.3     1  UNL1        0.0174
      9 C         142.9918  139.4733  165.9127 C.3     1  UNL1        0.0000
     10 C         142.6316  139.3409  167.3628 C.3     1  UNL1        0.0014
     11 C         138.3255  138.8921  165.9203 C.3     1  UNL1        0.1023
     12 C         139.3434  138.6499  164.8455 C.ar    1  UNL1       -0.0092
     13 C         140.0833  137.3462  164.7933 C.ar    1  UNL1       -0.0036
     14 C         141.1011  137.1040  163.7184 C.ar    1  UNL1       -0.0045
     15 C         141.3791  138.1655  162.6958 C.ar    1  UNL1       -0.0219
     16 C         142.3970  137.9233  161.6209 C.3     1  UNL1        0.0310
     17 C         140.6392  139.4693  162.7480 C.ar    1  UNL1       -0.0045
     18 C         139.6213  139.7115  163.8228 C.ar    1  UNL1       -0.0036
@<TRIPOS>BOND
     1     9    10    1
     2    10     8    1
     3     8     7    1
     4     7     4    1
     5     4     5    1
     6     5     6    1
     7     4     3    1
     8     3     1    1
     9     1     2    3
    10     2    11    1
    11    11    12    1
    12    12    13   ar
    13    13    14   ar
    14    14    15   ar
    15    15    16    1
    16    15    17   ar
    17    17    18   ar
    18    18    12   ar
@<TRIPOS>MOLECULE
*****
 18 18 0 0 0
SMALL
GASTEIGER

@<TRIPOS>ATOM
      1 C         141.5925  137.8023  164.3808 C.1     1  UNL1       -0.0727
      2 C         142.2754  138.4036  165.5733 C.1     1  UNL1       -0.0849
      3 C         140.9096  137.2010  163.1883 C.3     1  UNL1        0.1498
      4 N         139.7891  137.9370  162.5154 N.3     1  UNL1       -0.2618
      5 C         139.8424  138.1970  161.0390 C.3     1  UNL1        0.0730
      6 C         138.8312  139.1020  160.3999 C.3     1  UNL1        0.0188
      7 C         138.6153  138.4130  163.3189 C.3     1  UNL1        0.0730
      8 C         138.6627  139.7508  163.9958 C.3     1  UNL1        0.0174
      9 C         138.4574  138.7499  166.3846 C.3     1  UNL1        0.0000
     10 C         138.2337  139.8827  165.4271 C.3     1  UNL1        0.0014
     11 C         142.9583  139.0048  166.7658 C.3     1  UNL1        0.1023
     12 C         142.3357  140.1682  167.4792 C.ar    1  UNL1       -0.0092
     13 C         141.4672  141.1320  166.7264 C.ar    1  UNL1       -0.0036
     14 C         140.8446  142.2954  167.4398 C.ar    1  UNL1       -0.0045
     15 C         141.0904  142.4949  168.9060 C.ar    1  UNL1       -0.0219
     16 C         140.4677  143.6583  169.6194 C.3     1  UNL1        0.0310
     17 C         141.9588  141.5311  169.6588 C.ar    1  UNL1       -0.0045
     18 C         142.5815  140.3677  168.9454 C.ar    1  UNL1       -0.0036
@<TRIPOS>BOND
     1     9    10    1
     2    10     8    1
     3     8     7    1
     4     7     4    1
     5     4     5    1
     6     5     6    1
     7     4     3    1
     8     3     1    1
     9     1     2    3
    10     2    11    1
    11    11    12    1
    12    12    13   ar
    13    13    14   ar
    14    14    15   ar
    15    15    16    1
    16    15    17   ar
    17    17    18   ar
    18    18    12   ar
@<TRIPOS>MOLECULE
*****
 18 18 0 0 0
SMALL
GASTEIGER

@<TRIPOS>ATOM
      1 C         143.7421  139.1105  164.7465 C.1     1  UNL1       -0.0727
      2 C         143.2857  139.1238  166.1754 C.1     1  UNL1       -0.0849
      3 C         144.1985  139.0972  163.3177 C.3     1  UNL1        0.1498
      4 N         144.6168  140.3747  162.6521 N.3     1  UNL1       -0.2618
      5 C         144.2301  140.6394  161.2271 C.3     1  UNL1        0.0730
      6 C         143.7584  139.5128  160.3563 C.3     1  UNL1        0.0188
      7 C         145.4217  141.3874  163.4113 C.3     1  UNL1        0.0730
      8 C         144.7774  142.6577  163.8817 C.3     1  UNL1        0.0174
      9 C         142.6921  142.7692  165.4275 C.3     1  UNL1        0.0000
     10 C         144.1819  142.7322  165.2565 C.3     1  UNL1        0.0014
     11 C         142.8293  139.1371  167.6042 C.3     1  UNL1        0.1023
     12 C         142.2256  140.3804  168.1872 C.ar    1  UNL1       -0.0092
     13 C         140.7724  140.6817  167.9697 C.ar    1  UNL1       -0.0036
     14 C         140.1687  141.9249  168.5527 C.ar    1  UNL1       -0.0045
     15 C         141.0183  142.8669  169.3532 C.ar    1  UNL1       -0.0219
     16 C         140.4146  144.1102  169.9362 C.3     1  UNL1        0.0310
     17 C         142.4715  142.5657  169.5706 C.ar    1  UNL1       -0.0045
     18 C         143.0752  141.3224  168.9877 C.ar    1  UNL1       -0.0036
@<TRIPOS>BOND
     1     9    10    1
     2    10     8    1
     3     8     7    1
     4     7     4    1
     5     4     5    1
     6     5     6    1
     7     4     3    1
     8     3     1    1
     9     1     2    3
    10     2    11    1
    11    11    12    1
    12    12    13   ar
    13    13    14   ar
    14    14    15   ar
    15    15    16    1
    16    15    17   ar
    17    17    18   ar
    18    18    12   ar
@<TRIPOS>MOLECULE
*****
 18 18 0 0 0
SMALL
GASTEIGER

@<TRIPOS>ATOM
      1 C         139.0293  139.8937  168.8838 C.1     1  UNL1       -0.0727
      2 C         138.7558  139.4859  167.4663 C.1     1  UNL1       -0.0849
      3 C         139.3028  140.3014  170.3011 C.3     1  UNL1        0.1498
      4 N         140.3804  141.3013  170.5993 N.3     1  UNL1       -0.2618
      5 C         141.7528  140.8328  170.9832 C.3     1  UNL1        0.0730
      6 C         142.4090  139.7242  170.2149 C.3     1  UNL1        0.0188
      7 C         140.0858  142.7695  170.5136 C.3     1  UNL1        0.0730
      8 C         140.4799  143.5434  169.2906 C.3     1  UNL1        0.0174
      9 C         141.7739  142.2229  167.4652 C.3     1  UNL1        0.0000
     10 C         140.5097  142.8668  167.9522 C.3     1  UNL1        0.0014
     11 C         138.4823  139.0782  166.0490 C.3     1  UNL1        0.1023
     12 C         139.6226  138.8335  165.1056 C.ar    1  UNL1       -0.0092
     13 C         140.0171  137.4297  164.7541 C.ar    1  UNL1       -0.0036
     14 C         141.1574  137.1850  163.8108 C.ar    1  UNL1       -0.0045
     15 C         141.9031  138.3441  163.2189 C.ar    1  UNL1       -0.0219
     16 C         143.0434  138.0994  162.2756 C.3     1  UNL1        0.0310
     17 C         141.5085  139.7479  163.5704 C.ar    1  UNL1       -0.0045
     18 C         140.3683  139.9926  164.5138 C.ar    1  UNL1       -0.0036
@<TRIPOS>BOND
     1     9    10    1
     2    10     8    1
     3     8     7    1
     4     7     4    1
     5     4     5    1
     6     5     6    1
     7     4     3    1
     8     3     1    1
     9     1     2    3
    10     2    11    1
    11    11    12    1
    12    12    13   ar
    13    13    14   ar
    14    14    15   ar
    15    15    16    1
    16    15    17   ar
    17    17    18   ar
    18    18    12   ar
@<TRIPOS>MOLECULE
*****
 18 18 0 0 0
SMALL
GASTEIGER

@<TRIPOS>ATOM
      1 C         138.8607  138.9344  165.4902 C.1     1  UNL1       -0.0727
      2 C         139.0065  139.4449  166.8931 C.1     1  UNL1       -0.0849
      3 C         138.7149  138.4239  164.0873 C.3     1  UNL1        0.1498
      4 N         139.9037  137.8603  163.3669 N.3     1  UNL1       -0.2618
      5 C         140.0174  138.0068  161.8784 C.3     1  UNL1        0.0730
      6 C         140.2803  139.3549  161.2754 C.3     1  UNL1        0.0188
      7 C         140.9788  137.1502  164.1350 C.3     1  UNL1        0.0730
      8 C         142.2078  137.8938  164.5669 C.3     1  UNL1        0.0174
      9 C         142.5541  140.2151  165.6814 C.3     1  UNL1        0.0000
     10 C         142.2537  139.3897  164.4654 C.3     1  UNL1        0.0014
     11 C         139.1523  139.9554  168.2960 C.3     1  UNL1        0.1023
     12 C         140.4306  140.6117  168.7262 C.ar    1  UNL1       -0.0092
     13 C         140.5903  142.0978  168.5996 C.ar    1  UNL1       -0.0036
     14 C         141.8687  142.7541  169.0298 C.ar    1  UNL1       -0.0045
     15 C         142.9873  141.9244  169.5867 C.ar    1  UNL1       -0.0219
     16 C         144.2656  142.5807  170.0169 C.3     1  UNL1        0.0310
     17 C         142.8276  140.4383  169.7134 C.ar    1  UNL1       -0.0045
     18 C         141.5492  139.7820  169.2831 C.ar    1  UNL1       -0.0036
@<TRIPOS>BOND
     1     9    10    1
     2    10     8    1
     3     8     7    1
     4     7     4    1
     5     4     5    1
     6     5     6    1
     7     4     3    1
     8     3     1    1
     9     1     2    3
    10     2    11    1
    11    11    12    1
    12    12    13   ar
    13    13    14   ar
    14    14    15   ar
    15    15    16    1
    16    15    17   ar
    17    17    18   ar
    18    18    12   ar
@<TRIPOS>MOLECULE
*****
 18 18 0 0 0
SMALL
GASTEIGER

@<TRIPOS>ATOM
      1 C         140.2081  137.8185  164.2815 C.1     1  UNL1       -0.0727
      2 C         139.4500  138.3891  165.4433 C.1     1  UNL1       -0.0849
      3 C         140.9663  137.2480  163.1197 C.3     1  UNL1        0.1498
      4 N         141.8956  138.1207  162.3292 N.3     1  UNL1       -0.2618
      5 C         141.4479  138.7009  161.0204 C.3     1  UNL1        0.0730
      6 C         140.6354  139.9615  160.9975 C.3     1  UNL1        0.0188
      7 C         143.2724  138.4132  162.8476 C.3     1  UNL1        0.0730
      8 C         143.5334  139.6776  163.6112 C.3     1  UNL1        0.0174
      9 C         143.4226  138.4909  165.9198 C.3     1  UNL1        0.0000
     10 C         143.2722  139.7297  165.0875 C.3     1  UNL1        0.0014
     11 C         138.6919  138.9596  166.6051 C.3     1  UNL1        0.1023
     12 C         139.2770  140.0884  167.4009 C.ar    1  UNL1       -0.0092
     13 C         139.9765  141.2158  166.7012 C.ar    1  UNL1       -0.0036
     14 C         140.5616  142.3446  167.4971 C.ar    1  UNL1       -0.0045
     15 C         140.4473  142.3459  168.9927 C.ar    1  UNL1       -0.0219
     16 C         141.0324  143.4747  169.7886 C.3     1  UNL1        0.0310
     17 C         139.7478  141.2185  169.6924 C.ar    1  UNL1       -0.0045
     18 C         139.1627  140.0897  168.8966 C.ar    1  UNL1       -0.0036
@<TRIPOS>BOND
     1     9    10    1
     2    10     8    1
     3     8     7    1
     4     7     4    1
     5     4     5    1
     6     5     6    1
     7     4     3    1
     8     3     1    1
     9     1     2    3
    10     2    11    1
    11    11    12    1
    12    12    13   ar
    13    13    14   ar
    14    14    15   ar
    15    15    16    1
    16    15    17   ar
    17    17    18   ar
    18    18    12   ar
@<TRIPOS>MOLECULE
*****
 18 18 0 0 0
SMALL
GASTEIGER

@<TRIPOS>ATOM
      1 C         142.9920  143.3763  164.2573 C.1     1  UNL1       -0.0727
      2 C         141.6789  143.3033  164.9788 C.1     1  UNL1       -0.0849
      3 C         144.3050  143.4493  163.5359 C.3     1  UNL1        0.1498
      4 N         144.9126  142.2062  162.9566 N.3     1  UNL1       -0.2618
      5 C         144.9052  141.9892  161.4723 C.3     1  UNL1        0.0730
      6 C         144.0194  142.8250  160.5966 C.3     1  UNL1        0.0188
      7 C         145.5276  141.1801  163.8614 C.3     1  UNL1        0.0730
      8 C         144.7628  139.9401  164.2184 C.3     1  UNL1        0.0174
      9 C         142.7739  138.8086  165.4489 C.3     1  UNL1        0.0000
     10 C         143.6343  140.0127  165.2039 C.3     1  UNL1        0.0014
     11 C         140.3659  143.2303  165.7003 C.3     1  UNL1        0.1023
     12 C         139.7210  141.8994  165.9514 C.ar    1  UNL1       -0.0092
     13 C         140.0194  141.1480  167.2148 C.ar    1  UNL1       -0.0036
     14 C         139.3745  139.8171  167.4660 C.ar    1  UNL1       -0.0045
     15 C         138.4314  139.2378  166.4537 C.ar    1  UNL1       -0.0219
     16 C         137.7865  137.9069  166.7048 C.3     1  UNL1        0.0310
     17 C         138.1330  139.9893  165.1903 C.ar    1  UNL1       -0.0045
     18 C         138.7779  141.3201  164.9392 C.ar    1  UNL1       -0.0036
@<TRIPOS>BOND
     1     9    10    1
     2    10     8    1
     3     8     7    1
     4     7     4    1
     5     4     5    1
     6     5     6    1
     7     4     3    1
     8     3     1    1
     9     1     2    3
    10     2    11    1
    11    11    12    1
    12    12    13   ar
    13    13    14   ar
    14    14    15   ar
    15    15    16    1
    16    15    17   ar
    17    17    18   ar
    18    18    12   ar
@<TRIPOS>MOLECULE
*****
 18 18 0 0 0
SMALL
GASTEIGER

@<TRIPOS>ATOM
      1 C         143.4038  142.3322  168.2831 C.1     1  UNL1       -0.0727
      2 C         143.2187  142.4915  166.8031 C.1     1  UNL1       -0.0849
      3 C         143.5890  142.1729  169.7630 C.3     1  UNL1        0.1498
      4 N         142.6182  141.3489  170.5560 N.3     1  UNL1       -0.2618
      5 C         142.8699  139.8844  170.7611 C.3     1  UNL1        0.0730
      6 C         142.5436  138.9075  169.6706 C.3     1  UNL1        0.0188
      7 C         141.3959  141.9894  171.1439 C.3     1  UNL1        0.0730
      8 C         140.2335  142.3371  170.2618 C.3     1  UNL1        0.0174
      9 C         139.1827  140.2288  169.1660 C.3     1  UNL1        0.0000
     10 C         139.9458  141.5141  169.0411 C.3     1  UNL1        0.0014
     11 C         143.0335  142.6507  165.3231 C.3     1  UNL1        0.1023
     12 C         141.6964  143.0506  164.7733 C.ar    1  UNL1       -0.0092
     13 C         140.4992  143.1015  165.6755 C.ar    1  UNL1       -0.0036
     14 C         139.1622  143.5014  165.1257 C.ar    1  UNL1       -0.0045
     15 C         139.0223  143.8504  163.6736 C.ar    1  UNL1       -0.0219
     16 C         137.6852  144.2503  163.1238 C.3     1  UNL1        0.0310
     17 C         140.2195  143.7995  162.7713 C.ar    1  UNL1       -0.0045
     18 C         141.5565  143.3996  163.3212 C.ar    1  UNL1       -0.0036
@<TRIPOS>BOND
     1     9    10    1
     2    10     8    1
     3     8     7    1
     4     7     4    1
     5     4     5    1
     6     5     6    1
     7     4     3    1
     8     3     1    1
     9     1     2    3
    10     2    11    1
    11    11    12    1
    12    12    13   ar
    13    13    14   ar
    14    14    15   ar
    15    15    16    1
    16    15    17   ar
    17    17    18   ar
    18    18    12   ar
