@<TRIPOS>MOLECULE
*****
 23 25 0 0 0
SMALL
GASTEIGER

@<TRIPOS>ATOM
      1 C         137.5655  138.6034  166.9695 C.3     1  UNL1        0.0522
      2 C         138.8105  138.5202  166.1369 C.ar    1  UNL1        0.0621
      3 C         139.0916  137.5036  165.0704 C.ar    1  UNL1        0.0337
      4 C         140.4478  137.7940  164.4990 C.ar    1  UNL1        0.1099
      5 N         141.0048  138.9901  165.2124 N.ar    1  UNL1       -0.1673
      6 N         139.9929  139.4390  166.2247 N.ar    1  UNL1       -0.2339
      7 C         140.1380  140.6023  167.1604 C.ar    1  UNL1        0.0833
      8 C         140.1048  142.0034  166.6260 C.ar    1  UNL1        0.0201
      9 C         140.2499  143.1667  167.5617 C.ar    1  UNL1        0.0138
     10 C         140.4283  142.9289  169.0319 C.ar    1  UNL1        0.0683
     11 CL        140.5734  144.0923  169.9677 Cl      1  UNL1       -0.0814
     12 C         140.4616  141.5278  169.5664 C.ar    1  UNL1        0.0697
     13 CL        140.6399  141.2899  171.0367 Cl      1  UNL1       -0.0813
     14 C         140.3164  140.3645  168.6307 C.ar    1  UNL1        0.0314
     15 C         141.1275  137.0236  163.4061 C.3     1  UNL1        0.1893
     16 O         140.9074  137.4037  161.9719 O.3     1  UNL1       -0.3458
     17 C         141.9388  138.2137  161.2438 C.3     1  UNL1        0.1600
     18 C         143.3880  138.0857  161.6092 C.3     1  UNL1        0.1046
     19 N         144.0627  139.1724  162.3926 N.3     1  UNL1       -0.2706
     20 C         144.4102  139.1223  163.8510 C.3     1  UNL1        0.0722
     21 C         145.0707  140.4189  164.2149 C.3     1  UNL1        0.0188
     22 C         145.1315  141.2703  162.9815 C.3     1  UNL1        0.0188
     23 C         144.5086  140.5000  161.8553 C.3     1  UNL1        0.0722
@<TRIPOS>BOND
     1     1     2    1
     2     2     3   ar
     3     3     4   ar
     4     4    15    1
     5    15    16    1
     6    16    17    1
     7    17    18    1
     8    18    19    1
     9    19    20    1
    10    20    21    1
    11    21    22    1
    12    22    23    1
    13     4     5   ar
    14     5     6   ar
    15     6     7    1
    16     7     8   ar
    17     8     9   ar
    18     9    10   ar
    19    10    11    1
    20    10    12   ar
    21    12    13    1
    22    12    14   ar
    23     6     2   ar
    24    14     7   ar
    25    23    19    1
@<TRIPOS>MOLECULE
*****
 23 25 0 0 0
SMALL
GASTEIGER

@<TRIPOS>ATOM
      1 C         142.4900  140.8882  164.6297 C.3     1  UNL1        0.0522
      2 C         141.0604  141.2228  164.3221 C.ar    1  UNL1        0.0621
      3 C         140.4639  141.3686  162.9536 C.ar    1  UNL1        0.0337
      4 C         139.0112  141.7062  163.1148 C.ar    1  UNL1        0.1099
      5 N         138.7101  141.7689  164.5829 N.ar    1  UNL1       -0.1673
      6 N         139.9766  141.4702  165.3291 N.ar    1  UNL1       -0.2339
      7 C         140.1318  141.4265  166.8204 C.ar    1  UNL1        0.0833
      8 C         140.0338  140.1177  167.5467 C.ar    1  UNL1        0.0201
      9 C         140.1891  140.0741  169.0380 C.ar    1  UNL1        0.0138
     10 C         140.4424  141.3393  169.8030 C.ar    1  UNL1        0.0683
     11 CL        140.5977  141.2956  171.2943 Cl      1  UNL1       -0.0814
     12 C         140.5404  142.6480  169.0767 C.ar    1  UNL1        0.0697
     13 CL        140.7937  143.9132  169.8417 Cl      1  UNL1       -0.0813
     14 C         140.3851  142.6916  167.5854 C.ar    1  UNL1        0.0314
     15 C         138.0317  141.9399  162.0030 C.3     1  UNL1        0.1893
     16 O         137.2211  140.7981  161.4653 O.3     1  UNL1       -0.3458
     17 C         137.9031  139.5394  161.0176 C.3     1  UNL1        0.1600
     18 C         137.8651  138.3164  161.8853 C.3     1  UNL1        0.1046
     19 N         139.0192  138.0032  162.7909 N.3     1  UNL1       -0.2706
     20 C         138.9715  137.9358  164.2886 C.3     1  UNL1        0.0722
     21 C         140.3464  137.5934  164.7811 C.3     1  UNL1        0.0188
     22 C         141.2436  137.4491  163.5878 C.3     1  UNL1        0.0188
     23 C         140.4234  137.7024  162.3578 C.3     1  UNL1        0.0722
@<TRIPOS>BOND
     1     1     2    1
     2     2     3   ar
     3     3     4   ar
     4     4    15    1
     5    15    16    1
     6    16    17    1
     7    17    18    1
     8    18    19    1
     9    19    20    1
    10    20    21    1
    11    21    22    1
    12    22    23    1
    13     4     5   ar
    14     5     6   ar
    15     6     7    1
    16     7     8   ar
    17     8     9   ar
    18     9    10   ar
    19    10    11    1
    20    10    12   ar
    21    12    13    1
    22    12    14   ar
    23     6     2   ar
    24    14     7   ar
    25    23    19    1
@<TRIPOS>MOLECULE
*****
 23 25 0 0 0
SMALL
GASTEIGER

@<TRIPOS>ATOM
      1 C         138.4790  143.9212  164.7415 C.3     1  UNL1        0.0522
      2 C         139.9465  143.6594  164.5749 C.ar    1  UNL1        0.0621
      3 C         140.9872  144.6753  164.2075 C.ar    1  UNL1        0.0337
      4 C         142.3150  143.9795  164.1520 C.ar    1  UNL1        0.1099
      5 N         142.0948  142.5337  164.4851 N.ar    1  UNL1       -0.1673
      6 N         140.6311  142.3358  164.7465 N.ar    1  UNL1       -0.2339
      7 C         139.9682  141.0415  165.1148 C.ar    1  UNL1        0.0833
      8 C         139.5713  140.7805  166.5375 C.ar    1  UNL1        0.0201
      9 C         138.9085  139.4863  166.9058 C.ar    1  UNL1        0.0138
     10 C         138.6427  138.4531  165.8513 C.ar    1  UNL1        0.0683
     11 CL        137.9798  137.1588  166.2196 Cl      1  UNL1       -0.0814
     12 C         139.0396  138.7142  164.4286 C.ar    1  UNL1        0.0697
     13 CL        138.7738  137.6810  163.3741 Cl      1  UNL1       -0.0813
     14 C         139.7024  140.0084  164.0603 C.ar    1  UNL1        0.0314
     15 C         143.6316  144.6176  163.8214 C.3     1  UNL1        0.1893
     16 O         144.1293  144.6207  162.4063 O.3     1  UNL1       -0.3458
     17 C         143.7669  143.4968  161.4814 C.3     1  UNL1        0.1600
     18 C         144.6967  142.3312  161.3172 C.3     1  UNL1        0.1046
     19 N         144.6947  141.2222  162.3271 N.3     1  UNL1       -0.2706
     20 C         143.9236  139.9395  162.2265 C.3     1  UNL1        0.0722
     21 C         144.2158  139.1257  163.4521 C.3     1  UNL1        0.0188
     22 C         145.1675  139.9054  164.3102 C.3     1  UNL1        0.0188
     23 C         145.4634  141.2010  163.6149 C.3     1  UNL1        0.0722
@<TRIPOS>BOND
     1     1     2    1
     2     2     3   ar
     3     3     4   ar
     4     4    15    1
     5    15    16    1
     6    16    17    1
     7    17    18    1
     8    18    19    1
     9    19    20    1
    10    20    21    1
    11    21    22    1
    12    22    23    1
    13     4     5   ar
    14     5     6   ar
    15     6     7    1
    16     7     8   ar
    17     8     9   ar
    18     9    10   ar
    19    10    11    1
    20    10    12   ar
    21    12    13    1
    22    12    14   ar
    23     6     2   ar
    24    14     7   ar
    25    23    19    1
@<TRIPOS>MOLECULE
*****
 23 25 0 0 0
SMALL
GASTEIGER

@<TRIPOS>ATOM
      1 C         137.8359  138.7175  167.0397 C.3     1  UNL1        0.0522
      2 C         138.8038  138.7491  165.8942 C.ar    1  UNL1        0.0621
      3 C         138.6879  137.9658  164.6202 C.ar    1  UNL1        0.0337
      4 C         139.8700  138.3022  163.7601 C.ar    1  UNL1        0.1099
      5 N         140.7163  139.2933  164.5026 N.ar    1  UNL1       -0.1673
      6 N         140.0574  139.5696  165.8215 N.ar    1  UNL1       -0.2339
      7 C         140.5633  140.5025  166.8817 C.ar    1  UNL1        0.0833
      8 C         140.0929  141.9264  166.9143 C.ar    1  UNL1        0.0201
      9 C         140.5988  142.8592  167.9744 C.ar    1  UNL1        0.0138
     10 C         141.5751  142.3681  169.0019 C.ar    1  UNL1        0.0683
     11 CL        142.0810  143.3011  170.0620 Cl      1  UNL1       -0.0814
     12 C         142.0454  140.9442  168.9692 C.ar    1  UNL1        0.0697
     13 CL        143.0217  140.4531  169.9967 Cl      1  UNL1       -0.0813
     14 C         141.5395  140.0114  167.9091 C.ar    1  UNL1        0.0314
     15 C         140.1556  137.7452  162.3970 C.3     1  UNL1        0.1893
     16 O         139.4221  138.2761  161.2011 O.3     1  UNL1       -0.3458
     17 C         138.0026  138.7413  161.3375 C.3     1  UNL1        0.1600
     18 C         137.6217  140.1251  160.9018 C.3     1  UNL1        0.1046
     19 N         137.6942  141.2644  161.8748 N.3     1  UNL1       -0.2706
     20 C         138.0285  142.6883  161.5418 C.3     1  UNL1        0.0722
     21 C         137.9861  143.4837  162.8128 C.3     1  UNL1        0.0188
     22 C         137.6257  142.5514  163.9313 C.3     1  UNL1        0.0188
     23 C         137.4453  141.1799  163.3515 C.3     1  UNL1        0.0722
@<TRIPOS>BOND
     1     1     2    1
     2     2     3   ar
     3     3     4   ar
     4     4    15    1
     5    15    16    1
     6    16    17    1
     7    17    18    1
     8    18    19    1
     9    19    20    1
    10    20    21    1
    11    21    22    1
    12    22    23    1
    13     4     5   ar
    14     5     6   ar
    15     6     7    1
    16     7     8   ar
    17     8     9   ar
    18     9    10   ar
    19    10    11    1
    20    10    12   ar
    21    12    13    1
    22    12    14   ar
    23     6     2   ar
    24    14     7   ar
    25    23    19    1
@<TRIPOS>MOLECULE
*****
 23 25 0 0 0
SMALL
GASTEIGER

@<TRIPOS>ATOM
      1 C         144.0641  142.2460  165.0496 C.3     1  UNL1        0.0522
      2 C         143.3867  140.9545  164.6987 C.ar    1  UNL1        0.0621
      3 C         143.4759  140.2415  163.3820 C.ar    1  UNL1        0.0337
      4 C         142.6455  138.9955  163.4724 C.ar    1  UNL1        0.1099
      5 N         142.0432  138.9385  164.8449 N.ar    1  UNL1       -0.1673
      6 N         142.5013  140.1492  165.6028 N.ar    1  UNL1       -0.2339
      7 C         142.1377  140.4941  167.0167 C.ar    1  UNL1        0.0833
      8 C         142.4992  139.5599  168.1332 C.ar    1  UNL1        0.0201
      9 C         142.1356  139.9048  169.5470 C.ar    1  UNL1        0.0138
     10 C         141.4106  141.1838  169.8443 C.ar    1  UNL1        0.0683
     11 CL        141.0470  141.5286  171.2582 Cl      1  UNL1       -0.0814
     12 C         141.0491  142.1180  168.7278 C.ar    1  UNL1        0.0697
     13 CL        140.3240  143.3970  169.0251 Cl      1  UNL1       -0.0813
     14 C         141.4127  141.7731  167.3140 C.ar    1  UNL1        0.0314
     15 C         142.4515  137.9842  162.3817 C.3     1  UNL1        0.1893
     16 O         141.1478  137.2523  162.2607 O.3     1  UNL1       -0.3458
     17 C         139.9288  137.9692  161.7606 C.3     1  UNL1        0.1600
     18 C         138.6573  137.9309  162.5555 C.3     1  UNL1        0.1046
     19 N         138.6121  138.5351  163.9276 N.3     1  UNL1       -0.2706
     20 C         138.4522  139.9925  164.2444 C.3     1  UNL1        0.0722
     21 C         138.4601  140.1461  165.7365 C.3     1  UNL1        0.0188
     22 C         138.6249  138.7836  166.3418 C.3     1  UNL1        0.0188
     23 C         138.7188  137.7880  165.2239 C.3     1  UNL1        0.0722
@<TRIPOS>BOND
     1     1     2    1
     2     2     3   ar
     3     3     4   ar
     4     4    15    1
     5    15    16    1
     6    16    17    1
     7    17    18    1
     8    18    19    1
     9    19    20    1
    10    20    21    1
    11    21    22    1
    12    22    23    1
    13     4     5   ar
    14     5     6   ar
    15     6     7    1
    16     7     8   ar
    17     8     9   ar
    18     9    10   ar
    19    10    11    1
    20    10    12   ar
    21    12    13    1
    22    12    14   ar
    23     6     2   ar
    24    14     7   ar
    25    23    19    1
@<TRIPOS>MOLECULE
*****
 23 25 0 0 0
SMALL
GASTEIGER

@<TRIPOS>ATOM
      1 C         141.0947  136.9171  164.5352 C.3     1  UNL1        0.0522
      2 C         140.1890  138.0442  164.1362 C.ar    1  UNL1        0.0621
      3 C         139.4669  138.1740  162.8279 C.ar    1  UNL1        0.0337
      4 C         138.6778  139.4494  162.8585 C.ar    1  UNL1        0.1099
      5 N         138.9123  140.1077  164.1858 N.ar    1  UNL1       -0.1673
      6 N         139.8462  139.2392  164.9754 N.ar    1  UNL1       -0.2339
      7 C         140.3491  139.5171  166.3611 C.ar    1  UNL1        0.0833
      8 C         141.8205  139.4703  166.6484 C.ar    1  UNL1        0.0201
      9 C         142.3233  139.7481  168.0340 C.ar    1  UNL1        0.0138
     10 C         141.3547  140.0728  169.1323 C.ar    1  UNL1        0.0683
     11 CL        141.8576  140.3507  170.5180 Cl      1  UNL1       -0.0814
     12 C         139.8832  140.1196  168.8450 C.ar    1  UNL1        0.0697
     13 CL        138.9146  140.4443  169.9433 Cl      1  UNL1       -0.0813
     14 C         139.3804  139.8418  167.4594 C.ar    1  UNL1        0.0314
     15 C         137.8072  139.9742  161.7555 C.3     1  UNL1        0.1893
     16 O         137.4346  141.4268  161.7209 O.3     1  UNL1       -0.3458
     17 C         138.2337  142.3865  160.8899 C.3     1  UNL1        0.1600
     18 C         139.3118  143.2125  161.5266 C.3     1  UNL1        0.1046
     19 N         139.1996  143.6093  162.9688 N.3     1  UNL1       -0.2706
     20 C         138.0809  144.3986  163.5815 C.3     1  UNL1        0.0722
     21 C         138.3762  144.5636  165.0428 C.3     1  UNL1        0.0188
     22 C         139.6774  143.8762  165.3333 C.3     1  UNL1        0.0188
     23 C         140.1862  143.2864  164.0515 C.3     1  UNL1        0.0722
@<TRIPOS>BOND
     1     1     2    1
     2     2     3   ar
     3     3     4   ar
     4     4    15    1
     5    15    16    1
     6    16    17    1
     7    17    18    1
     8    18    19    1
     9    19    20    1
    10    20    21    1
    11    21    22    1
    12    22    23    1
    13     4     5   ar
    14     5     6   ar
    15     6     7    1
    16     7     8   ar
    17     8     9   ar
    18     9    10   ar
    19    10    11    1
    20    10    12   ar
    21    12    13    1
    22    12    14   ar
    23     6     2   ar
    24    14     7   ar
    25    23    19    1
@<TRIPOS>MOLECULE
*****
 23 25 0 0 0
SMALL
GASTEIGER

@<TRIPOS>ATOM
      1 C         143.5941  143.2833  164.7658 C.3     1  UNL1        0.0522
      2 C         142.0997  143.4117  164.7430 C.ar    1  UNL1        0.0621
      3 C         141.3030  144.2730  163.8085 C.ar    1  UNL1        0.0337
      4 C         139.8506  144.0950  164.1387 C.ar    1  UNL1        0.1099
      5 N         139.7498  143.1237  165.2773 N.ar    1  UNL1       -0.1673
      6 N         141.1399  142.7014  165.6508 N.ar    1  UNL1       -0.2339
      7 C         141.5057  141.7380  166.7408 C.ar    1  UNL1        0.0833
      8 C         142.0727  140.3932  166.3940 C.ar    1  UNL1        0.0201
      9 C         142.4385  139.4299  167.4839 C.ar    1  UNL1        0.0138
     10 C         142.2374  139.8112  168.9206 C.ar    1  UNL1        0.0683
     11 CL        142.6033  138.8478  170.0106 Cl      1  UNL1       -0.0814
     12 C         141.6705  141.1559  169.2674 C.ar    1  UNL1        0.0697
     13 CL        141.4694  141.5372  170.7041 Cl      1  UNL1       -0.0813
     14 C         141.3046  142.1193  168.1775 C.ar    1  UNL1        0.0314
     15 C         138.7009  144.7697  163.4510 C.3     1  UNL1        0.1893
     16 O         137.8600  144.0060  162.4714 O.3     1  UNL1       -0.3458
     17 C         138.1007  142.5408  162.2587 C.3     1  UNL1        0.1600
     18 C         137.3159  141.5303  163.0417 C.3     1  UNL1        0.1046
     19 N         137.9371  140.2134  163.4018 N.3     1  UNL1       -0.2706
     20 C         138.4022  139.8020  164.7672 C.3     1  UNL1        0.0722
     21 C         138.9549  138.4110  164.6690 C.3     1  UNL1        0.0188
     22 C         138.8314  137.9628  163.2429 C.3     1  UNL1        0.0188
     23 C         138.2024  139.0767  162.4597 C.3     1  UNL1        0.0722
@<TRIPOS>BOND
     1     1     2    1
     2     2     3   ar
     3     3     4   ar
     4     4    15    1
     5    15    16    1
     6    16    17    1
     7    17    18    1
     8    18    19    1
     9    19    20    1
    10    20    21    1
    11    21    22    1
    12    22    23    1
    13     4     5   ar
    14     5     6   ar
    15     6     7    1
    16     7     8   ar
    17     8     9   ar
    18     9    10   ar
    19    10    11    1
    20    10    12   ar
    21    12    13    1
    22    12    14   ar
    23     6     2   ar
    24    14     7   ar
    25    23    19    1
@<TRIPOS>MOLECULE
*****
 23 25 0 0 0
SMALL
GASTEIGER

@<TRIPOS>ATOM
      1 C         139.1451  137.7925  164.7645 C.3     1  UNL1        0.0522
      2 C         138.9447  139.2713  164.6134 C.ar    1  UNL1        0.0621
      3 C         138.1645  139.9487  163.5259 C.ar    1  UNL1        0.0337
      4 C         138.2268  141.4285  163.7635 C.ar    1  UNL1        0.1099
      5 N         139.0454  141.6656  164.9978 N.ar    1  UNL1       -0.1673
      6 N         139.4891  140.3325  165.5231 N.ar    1  UNL1       -0.2339
      7 C         140.3297  140.1011  166.7438 C.ar    1  UNL1        0.0833
      8 C         141.7858  139.7710  166.6002 C.ar    1  UNL1        0.0201
      9 C         142.6263  139.5397  167.8208 C.ar    1  UNL1        0.0138
     10 C         142.0106  139.6384  169.1851 C.ar    1  UNL1        0.0683
     11 CL        142.8512  139.4070  170.4058 Cl      1  UNL1       -0.0814
     12 C         140.5545  139.9684  169.3287 C.ar    1  UNL1        0.0697
     13 CL        139.9388  140.0671  170.6929 Cl      1  UNL1       -0.0813
     14 C         139.7140  140.1998  168.1080 C.ar    1  UNL1        0.0314
     15 C         137.5834  142.4854  162.9157 C.3     1  UNL1        0.1893
     16 O         137.7340  143.9330  163.2791 O.3     1  UNL1       -0.3458
     17 C         138.9156  144.7120  162.7822 C.3     1  UNL1        0.1600
     18 C         140.0789  143.9962  162.1622 C.3     1  UNL1        0.1046
     19 N         141.4758  144.3034  162.6142 N.3     1  UNL1       -0.2706
     20 C         141.8552  145.0701  163.8463 C.3     1  UNL1        0.0722
     21 C         143.3524  145.1383  163.9070 C.3     1  UNL1        0.0188
     22 C         143.8983  144.4137  162.7125 C.3     1  UNL1        0.0188
     23 C         142.7385  143.8977  161.9135 C.3     1  UNL1        0.0722
@<TRIPOS>BOND
     1     1     2    1
     2     2     3   ar
     3     3     4   ar
     4     4    15    1
     5    15    16    1
     6    16    17    1
     7    17    18    1
     8    18    19    1
     9    19    20    1
    10    20    21    1
    11    21    22    1
    12    22    23    1
    13     4     5   ar
    14     5     6   ar
    15     6     7    1
    16     7     8   ar
    17     8     9   ar
    18     9    10   ar
    19    10    11    1
    20    10    12   ar
    21    12    13    1
    22    12    14   ar
    23     6     2   ar
    24    14     7   ar
    25    23    19    1
@<TRIPOS>MOLECULE
*****
 23 25 0 0 0
SMALL
GASTEIGER

@<TRIPOS>ATOM
      1 C         138.7164  144.8545  165.3352 C.3     1  UNL1        0.0522
      2 C         139.0046  143.6851  164.4412 C.ar    1  UNL1        0.0621
      3 C         138.3173  143.3766  163.1441 C.ar    1  UNL1        0.0337
      4 C         138.9186  142.1196  162.5884 C.ar    1  UNL1        0.1099
      5 N         139.9774  141.6514  163.5421 N.ar    1  UNL1       -0.1673
      6 N         140.0306  142.6189  164.6872 N.ar    1  UNL1       -0.2339
      7 C         140.9486  142.5350  165.8705 C.ar    1  UNL1        0.0833
      8 C         142.4349  142.5507  165.6693 C.ar    1  UNL1        0.0201
      9 C         143.3529  142.4667  166.8526 C.ar    1  UNL1        0.0138
     10 C         142.7845  142.3670  168.2372 C.ar    1  UNL1        0.0683
     11 CL        143.7025  142.2831  169.4205 Cl      1  UNL1       -0.0814
     12 C         141.2982  142.3513  168.4384 C.ar    1  UNL1        0.0697
     13 CL        140.7298  142.2516  169.8230 Cl      1  UNL1       -0.0813
     14 C         140.3802  142.4353  167.2551 C.ar    1  UNL1        0.0314
     15 C         138.5293  141.4488  161.3045 C.3     1  UNL1        0.1893
     16 O         137.3342  140.5432  161.2638 O.3     1  UNL1       -0.3458
     17 C         137.5185  139.0554  161.3138 C.3     1  UNL1        0.1600
     18 C         138.8996  138.4701  161.3067 C.3     1  UNL1        0.1046
     19 N         139.5399  138.0432  162.5942 N.3     1  UNL1       -0.2706
     20 C         138.9092  138.1001  163.9539 C.3     1  UNL1        0.0722
     21 C         139.9029  137.5765  164.9481 C.3     1  UNL1        0.0188
     22 C         141.1477  137.1959  164.2028 C.3     1  UNL1        0.0188
     23 C         140.9234  137.4843  162.7480 C.3     1  UNL1        0.0722
@<TRIPOS>BOND
     1     1     2    1
     2     2     3   ar
     3     3     4   ar
     4     4    15    1
     5    15    16    1
     6    16    17    1
     7    17    18    1
     8    18    19    1
     9    19    20    1
    10    20    21    1
    11    21    22    1
    12    22    23    1
    13     4     5   ar
    14     5     6   ar
    15     6     7    1
    16     7     8   ar
    17     8     9   ar
    18     9    10   ar
    19    10    11    1
    20    10    12   ar
    21    12    13    1
    22    12    14   ar
    23     6     2   ar
    24    14     7   ar
    25    23    19    1
