@<TRIPOS>MOLECULE
*****
 60 66 0 0 0
SMALL
GASTEIGER

@<TRIPOS>ATOM
      1 C         141.8392  142.2452  167.0746 C.ar    1  UNL1        0.1090
      2 C         143.1338  142.4042  167.8156 C.ar    1  UNL1        0.0405
      3 C         143.2441  141.9453  169.2394 C.ar    1  UNL1        0.1596
      4 F         144.5387  142.1043  169.9804 F       1  UNL1       -0.2025
      5 C         142.0600  141.3276  169.9222 C.ar    1  UNL1        0.1316
      6 N         140.7656  141.1686  169.1813 N.ar    1  UNL1       -0.2073
      7 C         140.6552  141.6275  167.7574 C.ar    1  UNL1        0.2341
      8 N         140.4562  143.3284  165.1606 N.am    1  UNL1       -0.3024
      9 C         141.7289  142.7040  165.6508 C.2     1  UNL1        0.2504
     10 O         142.8912  142.5385  164.7172 O.2     1  UNL1       -0.2700
     11 H         139.6933  143.4371  165.7733 H       1  UNL1        0.1497
     12 C         140.1249  144.7051  160.8891 C.3     1  UNL1        0.0720
     13 C         140.6052  145.6532  161.9476 C.3     1  UNL1        0.0213
     14 C         140.7156  145.1943  163.3713 C.3     1  UNL1        0.0213
     15 C         140.3458  143.7873  163.7367 C.3     1  UNL1        0.0720
     16 C         139.8655  142.8391  162.6783 C.3     1  UNL1        0.0213
     17 C         139.7551  143.2980  161.2545 C.3     1  UNL1        0.0213
     18 C         141.2042  145.0795  158.5557 C.2     1  UNL1        0.2487
     19 O         142.5044  144.5363  159.0699 O.2     1  UNL1       -0.2700
     20 N         140.0145  145.1639  159.4653 N.am    1  UNL1       -0.3024
     21 H         139.1612  145.5205  159.1278 H       1  UNL1        0.1497
     22 C         138.8745  147.9848  154.9319 C.3     1  UNL1        0.0310
     23 C         139.9289  146.9910  155.3200 C.ar    1  UNL1       -0.0215
     24 C         140.8729  146.4561  154.2842 C.ar    1  UNL1       -0.0011
     25 C         141.9273  145.4623  154.6723 C.ar    1  UNL1        0.0364
     26 C         142.0378  145.0034  156.0961 C.ar    1  UNL1        0.1379
     27 O         143.0922  144.0097  156.4841 O.3     1  UNL1       -0.5054
     28 C         141.0938  145.5384  157.1318 C.ar    1  UNL1        0.0866
     29 C         140.0394  146.5322  156.7437 C.ar    1  UNL1        0.0033
     30 H         143.6818  143.6755  155.8371 H       1  UNL1        0.2922
     31 O         139.3607  141.4685  167.0165 O.3     1  UNL1       -0.4360
     32 C         139.0834  140.2075  166.2530 C.ar    1  UNL1        0.1472
     33 C         138.5888  138.9882  166.9731 C.ar    1  UNL1        0.0376
     34 C         138.3115  137.7271  166.2096 C.ar    1  UNL1        0.0031
     35 C         138.5290  137.6854  164.7260 C.ar    1  UNL1        0.0002
     36 C         139.0237  138.9047  164.0060 C.ar    1  UNL1        0.0028
     37 C         139.3009  140.1657  164.7695 C.ar    1  UNL1        0.0375
     38 C         139.2411  138.8630  162.5224 C.ar    1  UNL1       -0.0026
     39 C         138.2790  139.5559  161.6036 C.ar    1  UNL1       -0.0005
     40 C         138.4964  139.5142  160.1200 C.ar    1  UNL1       -0.0029
     41 C         139.6760  138.7797  159.5553 C.ar    1  UNL1       -0.0064
     42 C         140.6381  138.0868  160.4741 C.ar    1  UNL1       -0.0058
     43 C         140.4207  138.1284  161.9576 C.ar    1  UNL1       -0.0064
     44 C         139.8935  138.7380  158.0717 C.3     1  UNL1        0.0992
     45 N         141.2849  138.6391  157.5201 N.3     1  UNL1       -0.2666
     46 C         142.2168  139.8102  157.6215 C.3     1  UNL1        0.0882
     47 C         143.6082  139.7114  157.0700 C.3     1  UNL1        0.0702
     48 C         144.5401  140.8824  157.1714 C.3     1  UNL1        0.0186
     49 N         144.0677  138.4415  156.4171 N.3     1  UNL1       -0.2974
     50 C         143.1359  137.2705  156.3157 C.3     1  UNL1        0.0702
     51 C         143.5954  136.0006  155.6628 C.3     1  UNL1        0.0186
     52 C         141.7444  137.3693  156.8672 C.3     1  UNL1        0.0882
     53 H         144.8858  138.1228  156.9363 H       1  UNL1        0.1232
     54 C         141.3829  137.4356  162.8764 C.3     1  UNL1        0.0993
     55 N         142.4801  138.2145  163.5392 N.3     1  UNL1       -0.2646
     56 C         142.5272  138.3199  165.0348 C.3     1  UNL1        0.1049
     57 C         143.6244  139.0987  165.6976 C.3     1  UNL1        0.1595
     58 O         144.6746  139.7723  164.8649 O.3     1  UNL1       -0.3508
     59 C         144.6276  139.6669  163.3694 C.3     1  UNL1        0.1595
     60 C         143.5303  138.8880  162.7065 C.3     1  UNL1        0.1049
@<TRIPOS>BOND
     1    22    23    1
     2    23    24   ar
     3    24    25   ar
     4    25    26   ar
     5    26    27    1
     6    26    28   ar
     7    28    18    1
     8    18    19    2
     9    18    20   am
    10    12    20    1
    11    12    13    1
    12    13    14    1
    13    14    15    1
    14    15     8    1
    15     8     9   am
    16     9    10    2
    17     9     1    1
    18     1     2   ar
    19     2     3   ar
    20     3     4    1
    21     3     5   ar
    22     5     6   ar
    23     6     7   ar
    24     7    31    1
    25    31    32    1
    26    32    33   ar
    27    33    34   ar
    28    34    35   ar
    29    35    36   ar
    30    36    38    1
    31    38    39   ar
    32    39    40   ar
    33    40    41   ar
    34    41    44    1
    35    44    45    1
    36    45    46    1
    37    46    47    1
    38    47    48    1
    39    47    49    1
    40    49    50    1
    41    50    51    1
    42    50    52    1
    43    41    42   ar
    44    42    43   ar
    45    43    54    1
    46    54    55    1
    47    55    56    1
    48    56    57    1
    49    57    58    1
    50    58    59    1
    51    59    60    1
    52    36    37   ar
    53    15    16    1
    54    16    17    1
    55    28    29   ar
    56    29    23   ar
    57    17    12    1
    58     7     1   ar
    59    37    32   ar
    60    43    38   ar
    61    60    55    1
    62    52    45    1
    63    27    30    1
    64    20    21    1
    65     8    11    1
    66    49    53    1
@<TRIPOS>MOLECULE
*****
 60 66 0 0 0
SMALL
GASTEIGER

@<TRIPOS>ATOM
      1 C         141.6913  142.2384  166.7811 C.ar    1  UNL1        0.1090
      2 C         142.9481  142.4433  167.5739 C.ar    1  UNL1        0.0405
      3 C         143.0291  141.9563  168.9903 C.ar    1  UNL1        0.1596
      4 F         144.2859  142.1612  169.7832 F       1  UNL1       -0.2025
      5 C         141.8534  141.2644  169.6140 C.ar    1  UNL1        0.1316
      6 N         140.5966  141.0595  168.8212 N.ar    1  UNL1       -0.2073
      7 C         140.5155  141.5465  167.4047 C.ar    1  UNL1        0.2341
      8 N         140.3581  143.3861  164.8693 N.am    1  UNL1       -0.3024
      9 C         141.6102  142.7254  165.3647 C.2     1  UNL1        0.2504
     10 O         142.7814  142.5517  164.4437 O.2     1  UNL1       -0.2700
     11 H         139.5894  143.5001  165.4738 H       1  UNL1        0.1497
     12 C         140.1148  144.8473  160.6201 C.3     1  UNL1        0.0720
     13 C         140.5470  145.7818  161.7109 C.3     1  UNL1        0.0213
     14 C         140.6280  145.2947  163.1273 C.3     1  UNL1        0.0213
     15 C         140.2770  143.8732  163.4528 C.3     1  UNL1        0.0720
     16 C         139.8448  142.9387  162.3620 C.3     1  UNL1        0.0213
     17 C         139.7638  143.4258  160.9456 C.3     1  UNL1        0.0213
     18 C         141.2156  145.1884  158.2915 C.2     1  UNL1        0.2487
     19 O         142.4785  144.5554  158.7958 O.2     1  UNL1       -0.2700
     20 N         140.0338  145.3344  159.2036 N.am    1  UNL1       -0.3024
     21 H         139.2049  145.7498  158.8726 H       1  UNL1        0.1497
     22 C         139.1037  148.3210  154.7241 C.3     1  UNL1        0.0310
     23 C         140.0786  147.2417  155.0914 C.ar    1  UNL1       -0.0215
     24 C         140.9723  146.6495  154.0423 C.ar    1  UNL1       -0.0011
     25 C         141.9471  145.5703  154.4097 C.ar    1  UNL1        0.0364
     26 C         142.0282  145.0832  155.8260 C.ar    1  UNL1        0.1379
     27 O         143.0030  144.0040  156.1934 O.3     1  UNL1       -0.5054
     28 C         141.1345  145.6754  156.8751 C.ar    1  UNL1        0.0866
     29 C         140.1597  146.7547  156.5077 C.ar    1  UNL1        0.0033
     30 H         143.5613  143.6340  155.5380 H       1  UNL1        0.2922
     31 O         139.2588  141.3416  166.6120 O.3     1  UNL1       -0.4360
     32 C         139.1302  140.1550  165.7034 C.ar    1  UNL1        0.1472
     33 C         139.0169  138.7759  166.2822 C.ar    1  UNL1        0.0376
     34 C         138.8884  137.5894  165.3736 C.ar    1  UNL1        0.0031
     35 C         138.8731  137.7819  163.8862 C.ar    1  UNL1        0.0002
     36 C         138.9864  139.1610  163.3073 C.ar    1  UNL1        0.0028
     37 C         139.1150  140.3476  164.2159 C.ar    1  UNL1        0.0375
     38 C         138.9712  139.3537  161.8197 C.ar    1  UNL1       -0.0026
     39 C         137.8472  140.1072  161.1725 C.ar    1  UNL1       -0.0005
     40 C         137.8319  140.2998  159.6851 C.ar    1  UNL1       -0.0029
     41 C         138.9406  139.7389  158.8448 C.ar    1  UNL1       -0.0064
     42 C         140.0646  138.9854  159.4920 C.ar    1  UNL1       -0.0058
     43 C         140.0799  138.7928  160.9794 C.ar    1  UNL1       -0.0064
     44 C         138.9253  139.9315  157.3572 C.3     1  UNL1        0.0992
     45 N         137.9009  140.8282  156.7276 N.3     1  UNL1       -0.2666
     46 C         136.5112  140.3208  156.4796 C.3     1  UNL1        0.0882
     47 C         135.4867  141.2175  155.8499 C.3     1  UNL1        0.0702
     48 C         134.0970  140.7102  155.6019 C.3     1  UNL1        0.0186
     49 N         135.8519  142.6214  155.4682 N.3     1  UNL1       -0.2974
     50 C         137.2415  143.1287  155.7162 C.3     1  UNL1        0.0702
     51 C         137.6068  144.5327  155.3346 C.3     1  UNL1        0.0186
     52 C         138.2660  142.2321  156.3459 C.3     1  UNL1        0.0882
     53 H         135.2181  143.2389  155.9757 H       1  UNL1        0.1232
     54 C         141.2039  138.0393  161.6266 C.3     1  UNL1        0.0993
     55 N         142.3983  138.7791  162.1518 N.3     1  UNL1       -0.2646
     56 C         142.8573  138.5573  163.5626 C.3     1  UNL1        0.1049
     57 C         144.0517  139.2971  164.0879 C.3     1  UNL1        0.1595
     58 O         144.7873  140.2588  163.2024 O.3     1  UNL1       -0.3508
     59 C         144.3284  140.4806  161.7916 C.3     1  UNL1        0.1595
     60 C         143.1339  139.7408  161.2663 C.3     1  UNL1        0.1049
@<TRIPOS>BOND
     1    22    23    1
     2    23    24   ar
     3    24    25   ar
     4    25    26   ar
     5    26    27    1
     6    26    28   ar
     7    28    18    1
     8    18    19    2
     9    18    20   am
    10    12    20    1
    11    12    13    1
    12    13    14    1
    13    14    15    1
    14    15     8    1
    15     8     9   am
    16     9    10    2
    17     9     1    1
    18     1     2   ar
    19     2     3   ar
    20     3     4    1
    21     3     5   ar
    22     5     6   ar
    23     6     7   ar
    24     7    31    1
    25    31    32    1
    26    32    33   ar
    27    33    34   ar
    28    34    35   ar
    29    35    36   ar
    30    36    38    1
    31    38    39   ar
    32    39    40   ar
    33    40    41   ar
    34    41    44    1
    35    44    45    1
    36    45    46    1
    37    46    47    1
    38    47    48    1
    39    47    49    1
    40    49    50    1
    41    50    51    1
    42    50    52    1
    43    41    42   ar
    44    42    43   ar
    45    43    54    1
    46    54    55    1
    47    55    56    1
    48    56    57    1
    49    57    58    1
    50    58    59    1
    51    59    60    1
    52    36    37   ar
    53    15    16    1
    54    16    17    1
    55    28    29   ar
    56    29    23   ar
    57    17    12    1
    58     7     1   ar
    59    37    32   ar
    60    43    38   ar
    61    60    55    1
    62    52    45    1
    63    27    30    1
    64    20    21    1
    65     8    11    1
    66    49    53    1
@<TRIPOS>MOLECULE
*****
 60 66 0 0 0
SMALL
GASTEIGER

@<TRIPOS>ATOM
      1 C         142.8071  141.1572  166.5648 C.ar    1  UNL1        0.1090
      2 C         142.7952  141.9652  167.8286 C.ar    1  UNL1        0.0405
      3 C         142.8030  141.2748  169.1602 C.ar    1  UNL1        0.1596
      4 F         142.7911  142.0827  170.4240 F       1  UNL1       -0.2025
      5 C         142.8229  139.7764  169.2281 C.ar    1  UNL1        0.1316
      6 N         142.8348  138.9685  167.9644 N.ar    1  UNL1       -0.2073
      7 C         142.8270  139.6589  166.6326 C.ar    1  UNL1        0.2341
      8 N         141.5327  142.4607  164.7137 N.am    1  UNL1       -0.3024
      9 C         142.7993  141.8476  165.2332 C.2     1  UNL1        0.2504
     10 O         144.0580  141.9250  164.4210 O.2     1  UNL1       -0.2700
     11 H         140.7065  142.4099  165.2468 H       1  UNL1        0.1497
     12 C         141.5089  144.5320  160.7189 C.3     1  UNL1        0.0720
     13 C         141.4967  145.3399  161.9826 C.3     1  UNL1        0.0213
     14 C         141.5046  144.6494  163.3142 C.3     1  UNL1        0.0213
     15 C         141.5248  143.1511  163.3820 C.3     1  UNL1        0.0720
     16 C         141.5370  142.3432  162.1183 C.3     1  UNL1        0.0213
     17 C         141.5291  143.0337  160.7867 C.3     1  UNL1        0.0213
     18 C         140.4120  144.9311  158.3978 C.2     1  UNL1        0.2487
     19 O         139.3308  143.9493  158.7399 O.2     1  UNL1       -0.2700
     20 N         141.5010  145.2225  159.3872 N.am    1  UNL1       -0.3024
     21 H         142.2106  145.8669  159.1626 H       1  UNL1        0.1497
     22 C         138.8772  148.8750  155.3828 C.3     1  UNL1        0.0310
     23 C         139.6366  147.5935  155.5587 C.ar    1  UNL1       -0.0215
     24 C         140.3882  147.0025  154.4029 C.ar    1  UNL1       -0.0011
     25 C         141.1477  145.7210  154.5787 C.ar    1  UNL1        0.0364
     26 C         141.1556  145.0305  155.9103 C.ar    1  UNL1        0.1379
     27 O         141.9151  143.7490  156.0862 O.3     1  UNL1       -0.5054
     28 C         140.4041  145.6216  157.0661 C.ar    1  UNL1        0.0866
     29 C         139.6446  146.9031  156.8902 C.ar    1  UNL1        0.0033
     30 H         142.3845  143.3798  155.3642 H       1  UNL1        0.2922
     31 O         142.8389  138.8510  165.3689 O.3     1  UNL1       -0.4360
     32 C         141.5565  138.5808  164.6393 C.ar    1  UNL1        0.1472
     33 C         140.4227  137.8964  165.3436 C.ar    1  UNL1        0.0376
     34 C         139.1403  137.6262  164.6140 C.ar    1  UNL1        0.0031
     35 C         138.9916  138.0404  163.1800 C.ar    1  UNL1        0.0002
     36 C         140.1254  138.7249  162.4757 C.ar    1  UNL1        0.0028
     37 C         141.4078  138.9950  163.2053 C.ar    1  UNL1        0.0375
     38 C         139.9767  139.1391  161.0417 C.ar    1  UNL1       -0.0026
     39 C         141.0371  138.7798  160.0435 C.ar    1  UNL1       -0.0005
     40 C         140.8885  139.1940  158.6095 C.ar    1  UNL1       -0.0029
     41 C         139.6795  139.9676  158.1738 C.ar    1  UNL1       -0.0064
     42 C         138.6191  140.3269  159.1720 C.ar    1  UNL1       -0.0058
     43 C         138.7677  139.9127  160.6060 C.ar    1  UNL1       -0.0064
     44 C         139.5309  140.3819  156.7397 C.3     1  UNL1        0.0992
     45 N         138.3143  141.1416  156.3008 N.3     1  UNL1       -0.2666
     46 C         138.4388  142.5734  155.8710 C.3     1  UNL1        0.0882
     47 C         137.2222  143.3332  155.4321 C.3     1  UNL1        0.0702
     48 C         137.3466  144.7648  155.0023 C.3     1  UNL1        0.0186
     49 N         135.8811  142.6612  155.4230 N.3     1  UNL1       -0.2974
     50 C         135.7566  141.2295  155.8528 C.3     1  UNL1        0.0702
     51 C         134.4156  140.5575  155.8437 C.3     1  UNL1        0.0186
     52 C         136.9733  140.4697  156.2917 C.3     1  UNL1        0.0882
     53 H         135.5324  142.7126  154.4658 H       1  UNL1        0.1232
     54 C         137.7073  140.2720  161.6042 C.3     1  UNL1        0.0993
     55 N         137.8353  141.5273  162.4153 N.3     1  UNL1       -0.2646
     56 C         137.9026  142.8597  161.7297 C.3     1  UNL1        0.1049
     57 C         138.0306  144.1150  162.5408 C.3     1  UNL1        0.1595
     58 O         138.0914  144.0378  164.0376 O.3     1  UNL1       -0.3508
     59 C         138.0241  142.7054  164.7232 C.3     1  UNL1        0.1595
     60 C         137.8961  141.4501  163.9121 C.3     1  UNL1        0.1049
@<TRIPOS>BOND
     1    22    23    1
     2    23    24   ar
     3    24    25   ar
     4    25    26   ar
     5    26    27    1
     6    26    28   ar
     7    28    18    1
     8    18    19    2
     9    18    20   am
    10    12    20    1
    11    12    13    1
    12    13    14    1
    13    14    15    1
    14    15     8    1
    15     8     9   am
    16     9    10    2
    17     9     1    1
    18     1     2   ar
    19     2     3   ar
    20     3     4    1
    21     3     5   ar
    22     5     6   ar
    23     6     7   ar
    24     7    31    1
    25    31    32    1
    26    32    33   ar
    27    33    34   ar
    28    34    35   ar
    29    35    36   ar
    30    36    38    1
    31    38    39   ar
    32    39    40   ar
    33    40    41   ar
    34    41    44    1
    35    44    45    1
    36    45    46    1
    37    46    47    1
    38    47    48    1
    39    47    49    1
    40    49    50    1
    41    50    51    1
    42    50    52    1
    43    41    42   ar
    44    42    43   ar
    45    43    54    1
    46    54    55    1
    47    55    56    1
    48    56    57    1
    49    57    58    1
    50    58    59    1
    51    59    60    1
    52    36    37   ar
    53    15    16    1
    54    16    17    1
    55    28    29   ar
    56    29    23   ar
    57    17    12    1
    58     7     1   ar
    59    37    32   ar
    60    43    38   ar
    61    60    55    1
    62    52    45    1
    63    27    30    1
    64    20    21    1
    65     8    11    1
    66    49    53    1
@<TRIPOS>MOLECULE
*****
 60 66 0 0 0
SMALL
GASTEIGER

@<TRIPOS>ATOM
      1 C         141.3376  137.6577  156.4923 C.ar    1  UNL1        0.1090
      2 C         140.0537  137.2327  155.8433 C.ar    1  UNL1        0.0405
      3 C         140.0179  136.9393  154.3727 C.ar    1  UNL1        0.1596
      4 F         138.7340  136.5143  153.7238 F       1  UNL1       -0.2025
      5 C         141.2659  137.0709  153.5511 C.ar    1  UNL1        0.1316
      6 N         142.5497  137.4959  154.2000 N.ar    1  UNL1       -0.2073
      7 C         142.5856  137.7893  155.6706 C.ar    1  UNL1        0.2341
      8 N         140.2741  138.7524  158.5947 N.am    1  UNL1       -0.3024
      9 C         141.3734  137.9510  157.9628 C.2     1  UNL1        0.2504
     10 O         142.5085  137.4431  158.8015 O.2     1  UNL1       -0.2700
     11 H         139.5291  139.0858  158.0442 H       1  UNL1        0.1497
     12 C         140.3814  139.6325  163.0065 C.3     1  UNL1        0.0720
     13 C         139.7306  138.3763  162.5079 C.3     1  UNL1        0.0213
     14 C         139.6949  138.0830  161.0374 C.3     1  UNL1        0.0213
     15 C         140.3098  139.0458  160.0654 C.3     1  UNL1        0.0720
     16 C         140.9606  140.3019  160.5639 C.3     1  UNL1        0.0213
     17 C         140.9963  140.5953  162.0345 C.3     1  UNL1        0.0213
     18 C         141.2640  139.0881  165.3887 C.2     1  UNL1        0.2487
     19 O         142.0751  137.9570  164.8296 O.2     1  UNL1       -0.2700
     20 N         140.4171  139.9259  164.4771 N.am    1  UNL1       -0.3024
     21 H         139.8848  140.6683  164.8441 H       1  UNL1        0.1497
     22 C         138.8277  140.4959  169.7570 C.3     1  UNL1        0.0310
     23 C         140.0816  140.0854  169.0434 C.ar    1  UNL1       -0.0215
     24 C         141.3712  139.9683  169.8004 C.ar    1  UNL1       -0.0011
     25 C         142.6252  139.5578  169.0868 C.ar    1  UNL1        0.0364
     26 C         142.5894  139.2644  167.6163 C.ar    1  UNL1        0.1379
     27 O         143.8433  138.8539  166.9027 O.3     1  UNL1       -0.5054
     28 C         141.2998  139.3815  166.8593 C.ar    1  UNL1        0.0866
     29 C         140.0459  139.7920  167.5729 C.ar    1  UNL1        0.0033
     30 H         144.6489  138.7808  167.3756 H       1  UNL1        0.2922
     31 O         143.8694  138.2143  156.3195 O.3     1  UNL1       -0.4360
     32 C         144.1704  139.6723  156.5028 C.ar    1  UNL1        0.1472
     33 C         145.3133  140.3011  155.7622 C.ar    1  UNL1        0.0376
     34 C         145.6143  141.7591  155.9455 C.ar    1  UNL1        0.0031
     35 C         144.7724  142.5884  156.8693 C.ar    1  UNL1        0.0002
     36 C         143.6295  141.9596  157.6098 C.ar    1  UNL1        0.0028
     37 C         143.3285  140.5016  157.4266 C.ar    1  UNL1        0.0375
     38 C         142.7875  142.7889  158.5337 C.ar    1  UNL1       -0.0026
     39 C         141.4791  143.3472  158.0578 C.ar    1  UNL1       -0.0005
     40 C         140.6372  144.1765  158.9816 C.ar    1  UNL1       -0.0029
     41 C         141.1036  144.4474  160.3812 C.ar    1  UNL1       -0.0064
     42 C         142.4120  143.8892  160.8570 C.ar    1  UNL1       -0.0058
     43 C         143.2540  143.0599  159.9333 C.ar    1  UNL1       -0.0064
     44 C         140.2616  145.2767  161.3050 C.3     1  UNL1        0.0992
     45 N         139.4578  144.6146  162.3846 N.3     1  UNL1       -0.2666
     46 C         138.7380  143.3292  162.1023 C.3     1  UNL1        0.0882
     47 C         137.9341  142.6670  163.1818 C.3     1  UNL1        0.0702
     48 C         137.2143  141.3816  162.8995 C.3     1  UNL1        0.0186
     49 N         137.8502  143.2902  164.5437 N.3     1  UNL1       -0.2974
     50 C         138.5700  144.5756  164.8259 C.3     1  UNL1        0.0702
     51 C         138.4860  145.1988  166.1878 C.3     1  UNL1        0.0186
     52 C         139.3738  145.2377  163.7464 C.3     1  UNL1        0.0882
     53 H         138.2075  142.6012  165.2054 H       1  UNL1        0.1232
     54 C         144.5623  142.5016  160.4091 C.3     1  UNL1        0.0993
     55 N         144.6326  141.7616  161.7120 N.3     1  UNL1       -0.2646
     56 C         144.3963  140.2807  161.7470 C.3     1  UNL1        0.1049
     57 C         144.4666  139.5406  163.0498 C.3     1  UNL1        0.1595
     58 O         144.7730  140.2814  164.3176 O.3     1  UNL1       -0.3508
     59 C         145.0093  141.7623  164.2826 C.3     1  UNL1        0.1595
     60 C         144.9391  142.5024  162.9797 C.3     1  UNL1        0.1049
@<TRIPOS>BOND
     1    22    23    1
     2    23    24   ar
     3    24    25   ar
     4    25    26   ar
     5    26    27    1
     6    26    28   ar
     7    28    18    1
     8    18    19    2
     9    18    20   am
    10    12    20    1
    11    12    13    1
    12    13    14    1
    13    14    15    1
    14    15     8    1
    15     8     9   am
    16     9    10    2
    17     9     1    1
    18     1     2   ar
    19     2     3   ar
    20     3     4    1
    21     3     5   ar
    22     5     6   ar
    23     6     7   ar
    24     7    31    1
    25    31    32    1
    26    32    33   ar
    27    33    34   ar
    28    34    35   ar
    29    35    36   ar
    30    36    38    1
    31    38    39   ar
    32    39    40   ar
    33    40    41   ar
    34    41    44    1
    35    44    45    1
    36    45    46    1
    37    46    47    1
    38    47    48    1
    39    47    49    1
    40    49    50    1
    41    50    51    1
    42    50    52    1
    43    41    42   ar
    44    42    43   ar
    45    43    54    1
    46    54    55    1
    47    55    56    1
    48    56    57    1
    49    57    58    1
    50    58    59    1
    51    59    60    1
    52    36    37   ar
    53    15    16    1
    54    16    17    1
    55    28    29   ar
    56    29    23   ar
    57    17    12    1
    58     7     1   ar
    59    37    32   ar
    60    43    38   ar
    61    60    55    1
    62    52    45    1
    63    27    30    1
    64    20    21    1
    65     8    11    1
    66    49    53    1
@<TRIPOS>MOLECULE
*****
 60 66 0 0 0
SMALL
GASTEIGER

@<TRIPOS>ATOM
      1 C         141.3824  145.2764  156.6373 C.ar    1  UNL1        0.1090
      2 C         140.2828  146.2805  156.4563 C.ar    1  UNL1        0.0405
      3 C         139.9527  146.7922  155.0855 C.ar    1  UNL1        0.1596
      4 F         138.8531  147.7963  154.9044 F       1  UNL1       -0.2025
      5 C         140.7222  146.2999  153.8957 C.ar    1  UNL1        0.1316
      6 N         141.8218  145.2959  154.0767 N.ar    1  UNL1       -0.2073
      7 C         142.1519  144.7841  155.4475 C.ar    1  UNL1        0.2341
      8 N         140.6125  144.4797  158.9872 N.am    1  UNL1       -0.3024
      9 C         141.7125  144.7646  158.0081 C.2     1  UNL1        0.2504
     10 O         143.1426  144.5377  158.3997 O.2     1  UNL1       -0.2700
     11 H         139.6739  144.6286  158.7302 H       1  UNL1        0.1497
     12 C         141.6027  142.9444  163.0997 C.3     1  UNL1        0.0720
     13 C         141.7767  144.3997  162.7805 C.3     1  UNL1        0.0213
     14 C         141.4466  144.9114  161.4097 C.3     1  UNL1        0.0213
     15 C         140.9426  143.9679  160.3581 C.3     1  UNL1        0.0720
     16 C         140.7686  142.5127  160.6774 C.3     1  UNL1        0.0213
     17 C         141.0986  142.0009  162.0482 C.3     1  UNL1        0.0213
     18 C         141.0032  142.7037  165.6162 C.2     1  UNL1        0.2487
     19 O         139.7437  143.4865  165.3911 O.2     1  UNL1       -0.2700
     20 N         141.9327  142.4327  164.4706 N.am    1  UNL1       -0.3024
     21 H         142.7594  141.9189  164.6184 H       1  UNL1        0.1497
     22 C         139.5043  140.5134  170.0835 C.3     1  UNL1        0.0310
     23 C         140.5838  141.0968  169.2207 C.ar    1  UNL1       -0.0215
     24 C         141.9933  141.1683  169.7287 C.ar    1  UNL1       -0.0011
     25 C         143.0728  141.7517  168.8659 C.ar    1  UNL1        0.0364
     26 C         142.7428  142.2634  167.4951 C.ar    1  UNL1        0.1379
     27 O         143.8223  142.8468  166.6324 O.3     1  UNL1       -0.5054
     28 C         141.3333  142.1919  166.9871 C.ar    1  UNL1        0.0866
     29 C         140.2538  141.6085  167.8499 C.ar    1  UNL1        0.0033
     30 H         144.7028  142.8915  166.9497 H       1  UNL1        0.2922
     31 O         143.2515  143.7801  155.6286 O.3     1  UNL1       -0.4360
     32 C         142.9292  142.3160  155.6808 C.ar    1  UNL1        0.1472
     33 C         143.3456  141.4158  154.5556 C.ar    1  UNL1        0.0376
     34 C         143.0233  139.9517  154.6079 C.ar    1  UNL1        0.0031
     35 C         142.2846  139.3880  155.7853 C.ar    1  UNL1        0.0002
     36 C         141.8682  140.2882  156.9105 C.ar    1  UNL1        0.0028
     37 C         142.1905  141.7522  156.8583 C.ar    1  UNL1        0.0375
     38 C         141.1294  139.7245  158.0880 C.ar    1  UNL1       -0.0026
     39 C         139.6403  139.5542  158.0277 C.ar    1  UNL1       -0.0005
     40 C         138.9016  138.9905  159.2052 C.ar    1  UNL1       -0.0029
     41 C         139.6519  138.5970  160.4429 C.ar    1  UNL1       -0.0064
     42 C         141.1410  138.7672  160.5032 C.ar    1  UNL1       -0.0058
     43 C         141.8798  139.3310  159.3258 C.ar    1  UNL1       -0.0064
     44 C         138.9132  138.0332  161.6205 C.3     1  UNL1        0.0992
     45 N         138.5388  138.9243  162.7676 N.3     1  UNL1       -0.2666
     46 C         138.1090  140.3382  162.5098 C.3     1  UNL1        0.0882
     47 C         137.7346  141.2292  163.6569 C.3     1  UNL1        0.0702
     48 C         137.3049  142.6430  163.3992 C.3     1  UNL1        0.0186
     49 N         137.7900  140.7064  165.0618 N.3     1  UNL1       -0.2974
     50 C         138.2198  139.2926  165.3195 C.3     1  UNL1        0.0702
     51 C         138.2752  138.7698  166.7244 C.3     1  UNL1        0.0186
     52 C         138.5942  138.4016  164.1724 C.3     1  UNL1        0.0882
     53 H         136.8517  140.8043  165.4496 H       1  UNL1        0.1232
     54 C         143.3689  139.5012  159.3861 C.3     1  UNL1        0.0993
     55 N         143.9782  140.4192  160.4039 N.3     1  UNL1       -0.2646
     56 C         144.2514  141.8519  160.0535 C.3     1  UNL1        0.1049
     57 C         144.8607  142.7699  161.0713 C.3     1  UNL1        0.1595
     58 O         145.1969  142.2553  162.4395 O.3     1  UNL1       -0.3508
     59 C         144.9237  140.8226  162.7900 C.3     1  UNL1        0.1595
     60 C         144.3143  139.9045  161.7722 C.3     1  UNL1        0.1049
@<TRIPOS>BOND
     1    22    23    1
     2    23    24   ar
     3    24    25   ar
     4    25    26   ar
     5    26    27    1
     6    26    28   ar
     7    28    18    1
     8    18    19    2
     9    18    20   am
    10    12    20    1
    11    12    13    1
    12    13    14    1
    13    14    15    1
    14    15     8    1
    15     8     9   am
    16     9    10    2
    17     9     1    1
    18     1     2   ar
    19     2     3   ar
    20     3     4    1
    21     3     5   ar
    22     5     6   ar
    23     6     7   ar
    24     7    31    1
    25    31    32    1
    26    32    33   ar
    27    33    34   ar
    28    34    35   ar
    29    35    36   ar
    30    36    38    1
    31    38    39   ar
    32    39    40   ar
    33    40    41   ar
    34    41    44    1
    35    44    45    1
    36    45    46    1
    37    46    47    1
    38    47    48    1
    39    47    49    1
    40    49    50    1
    41    50    51    1
    42    50    52    1
    43    41    42   ar
    44    42    43   ar
    45    43    54    1
    46    54    55    1
    47    55    56    1
    48    56    57    1
    49    57    58    1
    50    58    59    1
    51    59    60    1
    52    36    37   ar
    53    15    16    1
    54    16    17    1
    55    28    29   ar
    56    29    23   ar
    57    17    12    1
    58     7     1   ar
    59    37    32   ar
    60    43    38   ar
    61    60    55    1
    62    52    45    1
    63    27    30    1
    64    20    21    1
    65     8    11    1
    66    49    53    1
@<TRIPOS>MOLECULE
*****
 60 66 0 0 0
SMALL
GASTEIGER

@<TRIPOS>ATOM
      1 C         141.2893  143.0908  164.2747 C.ar    1  UNL1        0.1090
      2 C         140.3286  144.2295  164.4496 C.ar    1  UNL1        0.0405
      3 C         139.4771  144.3099  165.6818 C.ar    1  UNL1        0.1596
      4 F         138.5164  145.4486  165.8566 F       1  UNL1       -0.2025
      5 C         139.5862  143.2516  166.7392 C.ar    1  UNL1        0.1316
      6 N         140.5468  142.1129  166.5644 N.ar    1  UNL1       -0.2073
      7 C         141.3984  142.0325  165.3321 C.ar    1  UNL1        0.2341
      8 N         141.5079  142.7395  161.7099 N.am    1  UNL1       -0.3024
      9 C         142.1408  143.0104  163.0425 C.2     1  UNL1        0.2504
     10 O         143.6253  143.2009  163.1429 O.2     1  UNL1       -0.2700
     11 H         140.5336  142.6144  161.6440 H       1  UNL1        0.1497
     12 C         144.0623  142.4984  158.0130 C.3     1  UNL1        0.0720
     13 C         143.1585  143.6767  158.2246 C.3     1  UNL1        0.0213
     14 C         142.3070  143.7570  159.4568 C.3     1  UNL1        0.0213
     15 C         142.3594  142.6591  160.4775 C.3     1  UNL1        0.0720
     16 C         143.2632  141.4808  160.2660 C.3     1  UNL1        0.0213
     17 C         144.1146  141.4005  159.0337 C.3     1  UNL1        0.0213
     18 C         146.3839  142.7038  156.8649 C.2     1  UNL1        0.2487
     19 O         147.0025  143.0700  158.1814 O.2     1  UNL1       -0.2700
     20 N         144.9138  142.4180  156.7807 N.am    1  UNL1       -0.3024
     21 H         144.5078  142.1777  155.9166 H       1  UNL1        0.1497
     22 C         150.7401  141.1462  154.4990 C.3     1  UNL1        0.0310
     23 C         149.4135  141.8446  154.4497 C.ar    1  UNL1       -0.0215
     24 C         148.9384  142.4625  153.1681 C.ar    1  UNL1       -0.0011
     25 C         147.6118  143.1609  153.1188 C.ar    1  UNL1        0.0364
     26 C         146.7603  143.2413  154.3511 C.ar    1  UNL1        0.1379
     27 O         145.4337  143.9397  154.3017 O.3     1  UNL1       -0.5054
     28 C         147.2354  142.6234  155.6326 C.ar    1  UNL1        0.0866
     29 C         148.5620  141.9250  155.6819 C.ar    1  UNL1        0.0033
     30 H         145.1369  144.3257  153.5012 H       1  UNL1        0.2922
     31 O         142.3590  140.8938  165.1573 O.3     1  UNL1       -0.4360
     32 C         141.9232  139.6473  164.4458 C.ar    1  UNL1        0.1472
     33 C         141.4352  138.4667  165.2319 C.ar    1  UNL1        0.0376
     34 C         140.9993  137.2202  164.5204 C.ar    1  UNL1        0.0031
     35 C         141.0514  137.1543  163.0228 C.ar    1  UNL1        0.0002
     36 C         141.5394  138.3349  162.2367 C.ar    1  UNL1        0.0028
     37 C         141.9753  139.5814  162.9482 C.ar    1  UNL1        0.0375
     38 C         141.5915  138.2691  160.7390 C.ar    1  UNL1       -0.0026
     39 C         142.8740  137.9113  160.0482 C.ar    1  UNL1       -0.0005
     40 C         142.9261  137.8455  158.5506 C.ar    1  UNL1       -0.0029
     41 C         141.6958  138.1374  157.7438 C.ar    1  UNL1       -0.0064
     42 C         140.4133  138.4951  158.4346 C.ar    1  UNL1       -0.0058
     43 C         140.3611  138.5610  159.9322 C.ar    1  UNL1       -0.0064
     44 C         141.7479  138.0715  156.2461 C.3     1  UNL1        0.0992
     45 N         142.3594  139.1978  155.4667 N.3     1  UNL1       -0.2666
     46 C         143.6487  138.9866  154.7296 C.3     1  UNL1        0.0882
     47 C         144.2603  140.1129  153.9502 C.3     1  UNL1        0.0702
     48 C         145.5495  139.9017  153.2131 C.3     1  UNL1        0.0186
     49 N         143.5825  141.4504  153.9079 N.3     1  UNL1       -0.2974
     50 C         142.2933  141.6616  154.6449 C.3     1  UNL1        0.0702
     51 C         141.6156  142.9992  154.6026 C.3     1  UNL1        0.0186
     52 C         141.6818  140.5353  155.4243 C.3     1  UNL1        0.0882
     53 H         143.3975  141.6558  152.9261 H       1  UNL1        0.1232
     54 C         139.0786  138.9188  160.6230 C.3     1  UNL1        0.0993
     55 N         138.7151  140.3591  160.8306 N.3     1  UNL1       -0.2646
     56 C         138.7979  141.3260  159.6867 C.3     1  UNL1        0.1049
     57 C         138.4343  142.7663  159.8943 C.3     1  UNL1        0.1595
     58 O         137.9879  143.2399  161.2458 O.3     1  UNL1       -0.3508
     59 C         137.9051  142.2731  162.3896 C.3     1  UNL1        0.1595
     60 C         138.2687  140.8327  162.1821 C.3     1  UNL1        0.1049
@<TRIPOS>BOND
     1    22    23    1
     2    23    24   ar
     3    24    25   ar
     4    25    26   ar
     5    26    27    1
     6    26    28   ar
     7    28    18    1
     8    18    19    2
     9    18    20   am
    10    12    20    1
    11    12    13    1
    12    13    14    1
    13    14    15    1
    14    15     8    1
    15     8     9   am
    16     9    10    2
    17     9     1    1
    18     1     2   ar
    19     2     3   ar
    20     3     4    1
    21     3     5   ar
    22     5     6   ar
    23     6     7   ar
    24     7    31    1
    25    31    32    1
    26    32    33   ar
    27    33    34   ar
    28    34    35   ar
    29    35    36   ar
    30    36    38    1
    31    38    39   ar
    32    39    40   ar
    33    40    41   ar
    34    41    44    1
    35    44    45    1
    36    45    46    1
    37    46    47    1
    38    47    48    1
    39    47    49    1
    40    49    50    1
    41    50    51    1
    42    50    52    1
    43    41    42   ar
    44    42    43   ar
    45    43    54    1
    46    54    55    1
    47    55    56    1
    48    56    57    1
    49    57    58    1
    50    58    59    1
    51    59    60    1
    52    36    37   ar
    53    15    16    1
    54    16    17    1
    55    28    29   ar
    56    29    23   ar
    57    17    12    1
    58     7     1   ar
    59    37    32   ar
    60    43    38   ar
    61    60    55    1
    62    52    45    1
    63    27    30    1
    64    20    21    1
    65     8    11    1
    66    49    53    1
@<TRIPOS>MOLECULE
*****
 60 66 0 0 0
SMALL
GASTEIGER

@<TRIPOS>ATOM
      1 C         140.7445  139.9738  166.4949 C.ar    1  UNL1        0.1090
      2 C         139.5765  139.9100  167.4341 C.ar    1  UNL1        0.0405
      3 C         139.7294  140.3704  168.8534 C.ar    1  UNL1        0.1596
      4 F         138.5615  140.3066  169.7926 F       1  UNL1       -0.2025
      5 C         141.0502  140.8946  169.3337 C.ar    1  UNL1        0.1316
      6 N         142.2182  140.9583  168.3947 N.ar    1  UNL1       -0.2073
      7 C         142.0653  140.4979  166.9753 C.ar    1  UNL1        0.2341
      8 N         139.8247  140.3495  164.0944 N.am    1  UNL1       -0.3024
      9 C         140.5916  139.5134  165.0756 C.2     1  UNL1        0.2504
     10 O         141.2056  138.2168  164.6374 O.2     1  UNL1       -0.2700
     11 H         139.4217  141.2005  164.3821 H       1  UNL1        0.1497
     12 C         139.3660  138.9685  159.8362 C.3     1  UNL1        0.0720
     13 C         140.2237  140.1582  160.1505 C.3     1  UNL1        0.0213
     14 C         140.3766  140.6185  161.5699 C.3     1  UNL1        0.0213
     15 C         139.6718  139.8891  162.6750 C.3     1  UNL1        0.0720
     16 C         138.8141  138.6994  162.3607 C.3     1  UNL1        0.0213
     17 C         138.6612  138.2391  160.9413 C.3     1  UNL1        0.0213
     18 C         140.3878  137.9294  157.6853 C.2     1  UNL1        0.2487
     19 O         141.7155  137.8110  158.3733 O.2     1  UNL1       -0.2700
     20 N         139.2131  138.5081  158.4168 N.am    1  UNL1       -0.3024
     21 H         138.3417  138.5858  157.9653 H       1  UNL1        0.1497
     22 C         137.9402  138.1896  153.1091 C.3     1  UNL1        0.0310
     23 C         139.0111  137.5992  153.9778 C.ar    1  UNL1       -0.0215
     24 C         139.9290  136.5484  153.4272 C.ar    1  UNL1       -0.0011
     25 C         140.9998  135.9579  154.2959 C.ar    1  UNL1        0.0364
     26 C         141.1528  136.4182  155.7152 C.ar    1  UNL1        0.1379
     27 O         142.2236  135.8278  156.5839 O.3     1  UNL1       -0.5054
     28 C         140.2349  137.4690  156.2659 C.ar    1  UNL1        0.0866
     29 C         139.1640  138.0595  155.3972 C.ar    1  UNL1        0.0033
     30 H         142.7970  135.1714  156.2399 H       1  UNL1        0.2922
     31 O         143.2332  140.5617  166.0362 O.3     1  UNL1       -0.4360
     32 C         143.4870  141.8063  165.2383 C.ar    1  UNL1        0.1472
     33 C         144.1111  143.0028  165.8932 C.ar    1  UNL1        0.0376
     34 C         144.3648  144.2474  165.0953 C.ar    1  UNL1        0.0031
     35 C         143.9945  144.2955  163.6425 C.ar    1  UNL1        0.0002
     36 C         143.3704  143.0990  162.9877 C.ar    1  UNL1        0.0028
     37 C         143.1166  141.8544  163.7856 C.ar    1  UNL1        0.0375
     38 C         143.0000  143.1470  161.5349 C.ar    1  UNL1       -0.0026
     39 C         143.7540  142.3144  160.5408 C.ar    1  UNL1       -0.0005
     40 C         143.3837  142.3624  159.0880 C.ar    1  UNL1       -0.0029
     41 C         142.2594  143.2430  158.6294 C.ar    1  UNL1       -0.0064
     42 C         141.5054  144.0756  159.6235 C.ar    1  UNL1       -0.0058
     43 C         141.8757  144.0276  161.0762 C.ar    1  UNL1       -0.0064
     44 C         141.8890  143.2910  157.1766 C.3     1  UNL1        0.0992
     45 N         140.4451  143.3218  156.7713 N.3     1  UNL1       -0.2666
     46 C         139.8912  144.5208  156.0601 C.3     1  UNL1        0.0882
     47 C         138.4473  144.5516  155.6549 C.3     1  UNL1        0.0702
     48 C         137.8933  145.7504  154.9437 C.3     1  UNL1        0.0186
     49 N         137.5574  143.3834  155.9608 N.3     1  UNL1       -0.2974
     50 C         138.1113  142.1846  156.6720 C.3     1  UNL1        0.0702
     51 C         137.2214  141.0164  156.9779 C.3     1  UNL1        0.0186
     52 C         139.5552  142.1538  157.0772 C.3     1  UNL1        0.0882
     53 H         137.1888  143.0526  155.0692 H       1  UNL1        0.1232
     54 C         141.1217  144.8602  162.0703 C.3     1  UNL1        0.0993
     55 N         140.0462  144.2360  162.9091 N.3     1  UNL1       -0.2646
     56 C         138.8067  143.6961  162.2591 C.3     1  UNL1        0.1049
     57 C         137.7312  143.0719  163.0979 C.3     1  UNL1        0.1595
     58 O         137.8950  142.9875  164.5865 O.3     1  UNL1       -0.3508
     59 C         139.1344  143.5274  165.2364 C.3     1  UNL1        0.1595
     60 C         140.2100  144.1516  164.3977 C.3     1  UNL1        0.1049
@<TRIPOS>BOND
     1    22    23    1
     2    23    24   ar
     3    24    25   ar
     4    25    26   ar
     5    26    27    1
     6    26    28   ar
     7    28    18    1
     8    18    19    2
     9    18    20   am
    10    12    20    1
    11    12    13    1
    12    13    14    1
    13    14    15    1
    14    15     8    1
    15     8     9   am
    16     9    10    2
    17     9     1    1
    18     1     2   ar
    19     2     3   ar
    20     3     4    1
    21     3     5   ar
    22     5     6   ar
    23     6     7   ar
    24     7    31    1
    25    31    32    1
    26    32    33   ar
    27    33    34   ar
    28    34    35   ar
    29    35    36   ar
    30    36    38    1
    31    38    39   ar
    32    39    40   ar
    33    40    41   ar
    34    41    44    1
    35    44    45    1
    36    45    46    1
    37    46    47    1
    38    47    48    1
    39    47    49    1
    40    49    50    1
    41    50    51    1
    42    50    52    1
    43    41    42   ar
    44    42    43   ar
    45    43    54    1
    46    54    55    1
    47    55    56    1
    48    56    57    1
    49    57    58    1
    50    58    59    1
    51    59    60    1
    52    36    37   ar
    53    15    16    1
    54    16    17    1
    55    28    29   ar
    56    29    23   ar
    57    17    12    1
    58     7     1   ar
    59    37    32   ar
    60    43    38   ar
    61    60    55    1
    62    52    45    1
    63    27    30    1
    64    20    21    1
    65     8    11    1
    66    49    53    1
@<TRIPOS>MOLECULE
*****
 60 66 0 0 0
SMALL
GASTEIGER

@<TRIPOS>ATOM
      1 C         140.7241  140.1112  166.1304 C.ar    1  UNL1        0.1090
      2 C         139.7032  139.9743  167.2209 C.ar    1  UNL1        0.0405
      3 C         140.0849  140.2514  168.6448 C.ar    1  UNL1        0.1596
      4 F         139.0640  140.1145  169.7352 F       1  UNL1       -0.2025
      5 C         141.4875  140.6656  168.9783 C.ar    1  UNL1        0.1316
      6 N         142.5084  140.8025  167.8879 N.ar    1  UNL1       -0.2073
      7 C         142.1267  140.5253  166.4639 C.ar    1  UNL1        0.2341
      8 N         139.7025  140.9088  163.8789 N.am    1  UNL1       -0.3024
      9 C         140.3424  139.8340  164.7066 C.2     1  UNL1        0.2504
     10 O         140.6007  138.4820  164.1104 O.2     1  UNL1       -0.2700
     11 H         139.5330  141.7962  164.2701 H       1  UNL1        0.1497
     12 C         138.5572  140.0773  159.6072 C.3     1  UNL1        0.0720
     13 C         137.5805  139.8042  160.7123 C.3     1  UNL1        0.0213
     14 C         137.9622  140.0814  162.1362 C.3     1  UNL1        0.0213
     15 C         139.3207  140.6317  162.4549 C.3     1  UNL1        0.0720
     16 C         140.2975  140.9048  161.3498 C.3     1  UNL1        0.0213
     17 C         139.9158  140.6276  159.9260 C.3     1  UNL1        0.0213
     18 C         137.6628  140.9103  157.3146 C.2     1  UNL1        0.2487
     19 O         137.5319  142.2976  157.8697 O.2     1  UNL1       -0.2700
     20 N         138.1755  139.8002  158.1833 N.am    1  UNL1       -0.3024
     21 H         138.2615  138.8896  157.8189 H       1  UNL1        0.1497
     22 C         138.9790  140.4679  152.3073 C.3     1  UNL1        0.0310
     23 C         137.9392  140.4120  153.3870 C.ar    1  UNL1       -0.0215
     24 C         136.5178  140.0789  153.0429 C.ar    1  UNL1       -0.0011
     25 C         135.4780  140.0229  154.1225 C.ar    1  UNL1        0.0364
     26 C         135.8597  140.3001  155.5464 C.ar    1  UNL1        0.1379
     27 O         134.8199  140.2441  156.6261 O.3     1  UNL1       -0.5054
     28 C         137.2811  140.6332  155.8906 C.ar    1  UNL1        0.0866
     29 C         138.3209  140.6891  154.8109 C.ar    1  UNL1        0.0033
     30 H         133.9319  140.0361  156.4111 H       1  UNL1        0.2922
     31 O         143.1476  140.6622  165.3736 O.3     1  UNL1       -0.4360
     32 C         143.3482  141.9852  164.6958 C.ar    1  UNL1        0.1472
     33 C         143.9023  143.1465  165.4667 C.ar    1  UNL1        0.0376
     34 C         144.1028  144.4696  164.7889 C.ar    1  UNL1        0.0031
     35 C         143.7494  144.6313  163.3401 C.ar    1  UNL1        0.0002
     36 C         143.1953  143.4700  162.5692 C.ar    1  UNL1        0.0028
     37 C         142.9948  142.1469  163.2470 C.ar    1  UNL1        0.0375
     38 C         142.8419  143.6316  161.1204 C.ar    1  UNL1       -0.0026
     39 C         143.5388  142.8040  160.0815 C.ar    1  UNL1       -0.0005
     40 C         143.1854  142.9656  158.6328 C.ar    1  UNL1       -0.0029
     41 C         142.1350  143.9548  158.2229 C.ar    1  UNL1       -0.0064
     42 C         141.4380  144.7825  159.2618 C.ar    1  UNL1       -0.0058
     43 C         141.7915  144.6209  160.7105 C.ar    1  UNL1       -0.0064
     44 C         141.7815  144.1165  156.7741 C.3     1  UNL1        0.0992
     45 N         140.5137  144.8175  156.3851 N.3     1  UNL1       -0.2666
     46 C         139.4438  144.0746  155.6411 C.3     1  UNL1        0.0882
     47 C         138.1760  144.7757  155.2521 C.3     1  UNL1        0.0702
     48 C         137.1062  144.0329  154.5082 C.3     1  UNL1        0.0186
     49 N         137.9781  146.2196  155.6072 N.3     1  UNL1       -0.2974
     50 C         139.0480  146.9624  156.3512 C.3     1  UNL1        0.0702
     51 C         138.8501  148.4063  156.7063 C.3     1  UNL1        0.0186
     52 C         140.3158  146.2614  156.7402 C.3     1  UNL1        0.0882
     53 H         137.1340  146.2695  156.1776 H       1  UNL1        0.1232
     54 C         141.0945  145.4485  161.7494 C.3     1  UNL1        0.0993
     55 N         140.0322  144.8322  162.6106 N.3     1  UNL1       -0.2646
     56 C         138.7847  144.2824  161.9848 C.3     1  UNL1        0.1049
     57 C         137.7225  143.6661  162.8460 C.3     1  UNL1        0.1595
     58 O         137.9076  143.5996  164.3330 O.3     1  UNL1       -0.3508
     59 C         139.1549  144.1493  164.9589 C.3     1  UNL1        0.1595
     60 C         140.2173  144.7657  164.0977 C.3     1  UNL1        0.1049
@<TRIPOS>BOND
     1    22    23    1
     2    23    24   ar
     3    24    25   ar
     4    25    26   ar
     5    26    27    1
     6    26    28   ar
     7    28    18    1
     8    18    19    2
     9    18    20   am
    10    12    20    1
    11    12    13    1
    12    13    14    1
    13    14    15    1
    14    15     8    1
    15     8     9   am
    16     9    10    2
    17     9     1    1
    18     1     2   ar
    19     2     3   ar
    20     3     4    1
    21     3     5   ar
    22     5     6   ar
    23     6     7   ar
    24     7    31    1
    25    31    32    1
    26    32    33   ar
    27    33    34   ar
    28    34    35   ar
    29    35    36   ar
    30    36    38    1
    31    38    39   ar
    32    39    40   ar
    33    40    41   ar
    34    41    44    1
    35    44    45    1
    36    45    46    1
    37    46    47    1
    38    47    48    1
    39    47    49    1
    40    49    50    1
    41    50    51    1
    42    50    52    1
    43    41    42   ar
    44    42    43   ar
    45    43    54    1
    46    54    55    1
    47    55    56    1
    48    56    57    1
    49    57    58    1
    50    58    59    1
    51    59    60    1
    52    36    37   ar
    53    15    16    1
    54    16    17    1
    55    28    29   ar
    56    29    23   ar
    57    17    12    1
    58     7     1   ar
    59    37    32   ar
    60    43    38   ar
    61    60    55    1
    62    52    45    1
    63    27    30    1
    64    20    21    1
    65     8    11    1
    66    49    53    1
@<TRIPOS>MOLECULE
*****
 60 66 0 0 0
SMALL
GASTEIGER

@<TRIPOS>ATOM
      1 C         140.6191  146.2027  156.7153 C.ar    1  UNL1        0.1090
      2 C         139.6088  147.3115  156.7063 C.ar    1  UNL1        0.0405
      3 C         139.2109  147.9531  155.4102 C.ar    1  UNL1        0.1596
      4 F         138.2007  149.0619  155.4012 F       1  UNL1       -0.2025
      5 C         139.8232  147.4859  154.1230 C.ar    1  UNL1        0.1316
      6 N         140.8334  146.3772  154.1320 N.ar    1  UNL1       -0.2073
      7 C         141.2314  145.7355  155.4282 C.ar    1  UNL1        0.2341
      8 N         139.9642  145.1271  158.9877 N.am    1  UNL1       -0.3024
      9 C         141.0170  145.5611  158.0115 C.2     1  UNL1        0.2504
     10 O         142.4677  145.3536  158.3314 O.2     1  UNL1       -0.2700
     11 H         139.0120  145.2633  158.7777 H       1  UNL1        0.1497
     12 C         141.1577  143.2024  162.8763 C.3     1  UNL1        0.0720
     13 C         141.0203  144.6935  162.7886 C.3     1  UNL1        0.0213
     14 C         140.6224  145.3350  161.4924 C.3     1  UNL1        0.0213
     15 C         140.3620  144.4855  160.2839 C.3     1  UNL1        0.0720
     16 C         140.4995  142.9944  160.3716 C.3     1  UNL1        0.0213
     17 C         140.8974  142.3528  161.6678 C.3     1  UNL1        0.0213
     18 C         140.8280  142.9103  165.4368 C.2     1  UNL1        0.2487
     19 O         139.7025  143.9014  165.4049 O.2     1  UNL1       -0.2700
     20 N         141.5556  142.5608  164.1725 N.am    1  UNL1       -0.3024
     21 H         142.2943  141.9103  164.1934 H       1  UNL1        0.1497
     22 C         139.5255  140.4837  169.8430 C.3     1  UNL1        0.0310
     23 C         140.5746  141.0554  168.9361 C.ar    1  UNL1       -0.0215
     24 C         142.0215  140.9855  169.3253 C.ar    1  UNL1       -0.0011
     25 C         143.0706  141.5572  168.4184 C.ar    1  UNL1        0.0364
     26 C         142.6728  142.1988  167.1222 C.ar    1  UNL1        0.1379
     27 O         143.7219  142.7705  166.2153 O.3     1  UNL1       -0.5054
     28 C         141.2259  142.2687  166.7330 C.ar    1  UNL1        0.0866
     29 C         140.1768  141.6970  167.6399 C.ar    1  UNL1        0.0033
     30 H         144.6257  142.7269  166.4584 H       1  UNL1        0.2922
     31 O         142.2416  144.6268  155.4371 O.3     1  UNL1       -0.4360
     32 C         141.7894  143.1994  155.3468 C.ar    1  UNL1        0.1472
     33 C         141.7929  142.4939  154.0231 C.ar    1  UNL1        0.0376
     34 C         141.3408  141.0665  153.9328 C.ar    1  UNL1        0.0031
     35 C         140.8851  140.3447  155.1661 C.ar    1  UNL1        0.0002
     36 C         140.8815  141.0502  156.4898 C.ar    1  UNL1        0.0028
     37 C         141.3337  142.4775  156.5801 C.ar    1  UNL1        0.0375
     38 C         140.4258  140.3283  157.7232 C.ar    1  UNL1       -0.0026
     39 C         139.0042  140.4556  158.1846 C.ar    1  UNL1       -0.0005
     40 C         138.5485  139.7338  159.4179 C.ar    1  UNL1       -0.0029
     41 C         139.5143  138.8847  160.1900 C.ar    1  UNL1       -0.0064
     42 C         140.9360  138.7574  159.7287 C.ar    1  UNL1       -0.0058
     43 C         141.3917  139.4792  158.4953 C.ar    1  UNL1       -0.0064
     44 C         139.0586  138.1628  161.4234 C.3     1  UNL1        0.0992
     45 N         138.6533  138.9401  162.6406 N.3     1  UNL1       -0.2666
     46 C         138.6619  138.2814  163.9883 C.3     1  UNL1        0.0882
     47 C         138.2566  139.0587  165.2055 C.3     1  UNL1        0.0702
     48 C         138.2652  138.4001  166.5532 C.3     1  UNL1        0.0186
     49 N         137.8427  140.4946  165.0751 N.3     1  UNL1       -0.2974
     50 C         137.8341  141.1532  163.7274 C.3     1  UNL1        0.0702
     51 C         137.4202  142.5891  163.5970 C.3     1  UNL1        0.0186
     52 C         138.2394  140.3759  162.5102 C.3     1  UNL1        0.0882
     53 H         138.4739  141.0377  165.6642 H       1  UNL1        0.1232
     54 C         142.8133  139.3520  158.0340 C.3     1  UNL1        0.0993
     55 N         143.7501  140.5165  158.1610 N.3     1  UNL1       -0.2646
     56 C         143.7739  141.3257  159.4239 C.3     1  UNL1        0.1049
     57 C         144.7108  142.4902  159.5509 C.3     1  UNL1        0.1595
     58 O         145.6238  142.8456  158.4152 O.3     1  UNL1       -0.3508
     59 C         145.6001  142.0365  157.1523 C.3     1  UNL1        0.1595
     60 C         144.6632  140.8719  157.0252 C.3     1  UNL1        0.1049
@<TRIPOS>BOND
     1    22    23    1
     2    23    24   ar
     3    24    25   ar
     4    25    26   ar
     5    26    27    1
     6    26    28   ar
     7    28    18    1
     8    18    19    2
     9    18    20   am
    10    12    20    1
    11    12    13    1
    12    13    14    1
    13    14    15    1
    14    15     8    1
    15     8     9   am
    16     9    10    2
    17     9     1    1
    18     1     2   ar
    19     2     3   ar
    20     3     4    1
    21     3     5   ar
    22     5     6   ar
    23     6     7   ar
    24     7    31    1
    25    31    32    1
    26    32    33   ar
    27    33    34   ar
    28    34    35   ar
    29    35    36   ar
    30    36    38    1
    31    38    39   ar
    32    39    40   ar
    33    40    41   ar
    34    41    44    1
    35    44    45    1
    36    45    46    1
    37    46    47    1
    38    47    48    1
    39    47    49    1
    40    49    50    1
    41    50    51    1
    42    50    52    1
    43    41    42   ar
    44    42    43   ar
    45    43    54    1
    46    54    55    1
    47    55    56    1
    48    56    57    1
    49    57    58    1
    50    58    59    1
    51    59    60    1
    52    36    37   ar
    53    15    16    1
    54    16    17    1
    55    28    29   ar
    56    29    23   ar
    57    17    12    1
    58     7     1   ar
    59    37    32   ar
    60    43    38   ar
    61    60    55    1
    62    52    45    1
    63    27    30    1
    64    20    21    1
    65     8    11    1
    66    49    53    1
