@<TRIPOS>MOLECULE
*****
 37 40 0 0 0
SMALL
GASTEIGER

@<TRIPOS>ATOM
      1 C         141.9133  140.8505  164.7711 C.2     1  UNL1        0.2894
      2 O         140.7708  141.7459  164.3930 O.2     1  UNL1       -0.2688
      3 N         143.3046  141.1769  164.3154 N.am    1  UNL1       -0.1703
      4 N         144.5398  140.3798  164.6136 N.2     1  UNL1       -0.1783
      5 C         145.7036  141.0680  163.9639 C.2     1  UNL1        0.0938
      6 C         145.1876  142.2904  163.2642 C.3     1  UNL1        0.0799
      7 C         143.7049  142.3577  163.4814 C.3     1  UNL1        0.1809
      8 C         142.7843  143.4193  162.9568 C.2     1  UNL1        0.2432
      9 O         142.8890  144.8243  163.4717 O.2     1  UNL1       -0.2732
     10 N         141.7589  143.0760  161.9171 N.am    1  UNL1       -0.2990
     11 H         141.6902  142.1539  161.5791 H       1  UNL1        0.1498
     12 C         140.8383  144.1377  161.3925 C.3     1  UNL1        0.1179
     13 C         140.4261  144.1273  159.9502 C.ar    1  UNL1        0.0161
     14 C         141.1338  145.0058  158.9616 C.ar    1  UNL1        0.0103
     15 C         140.7216  144.9953  157.5194 C.ar    1  UNL1        0.0575
     16 CL        141.4293  145.8739  156.5307 Cl      1  UNL1       -0.0823
     17 C         139.6018  144.1064  157.0658 C.ar    1  UNL1        0.0129
     18 C         138.8942  143.2278  158.0544 C.ar    1  UNL1        0.0199
     19 C         139.3063  143.2383  159.4966 C.ar    1  UNL1        0.0839
     20 N         138.5986  142.3597  160.4853 N.ar    1  UNL1       -0.1889
     21 C         138.6406  140.8608  160.5211 C.ar    1  UNL1        0.2258
     22 N         137.7927  140.4006  161.6697 N.ar    1  UNL1       -0.1045
     23 N         137.2266  141.6152  162.3438 N.ar    1  UNL1       -0.0222
     24 N         137.7247  142.8260  161.6118 N.ar    1  UNL1       -0.0385
     25 C         141.6644  139.6287  165.6050 C.3     1  UNL1        0.2681
     26 C         141.3415  139.7688  167.0630 C.ar    1  UNL1        0.0265
     27 C         139.9546  140.1475  167.4910 C.ar    1  UNL1        0.0020
     28 C         139.6316  140.2876  168.9491 C.ar    1  UNL1        0.0294
     29 C         140.6955  140.0491  169.9792 C.ar    1  UNL1        0.1401
     30 F         140.3726  140.1892  171.4373 F       1  UNL1       -0.2042
     31 C         142.0824  139.6704  169.5513 C.ar    1  UNL1        0.0294
     32 C         142.4054  139.5302  168.0932 C.ar    1  UNL1        0.0020
     33 O         141.7384  138.2668  164.9806 O.3     1  UNL1       -0.4381
     34 C         140.6191  137.7795  164.1090 C.2     1  UNL1        0.3176
     35 O         140.9200  136.9511  162.8952 O.2     1  UNL1       -0.2501
     36 C         138.4997  137.3939  165.5614 C.3     1  UNL1        0.0122
     37 C         139.1990  138.1206  164.4511 C.3     1  UNL1        0.1096
@<TRIPOS>BOND
     1    36    37    1
     2    37    34    1
     3    34    35    2
     4    34    33    1
     5    25    33    1
     6    25     1    1
     7     1     2    2
     8     1     3   am
     9     3     4    1
    10     4     5    2
    11     5     6    1
    12     6     7    1
    13     7     8    1
    14     8     9    2
    15     8    10   am
    16    10    12    1
    17    12    13    1
    18    13    14   ar
    19    14    15   ar
    20    15    16    1
    21    15    17   ar
    22    17    18   ar
    23    18    19   ar
    24    19    20    1
    25    20    21   ar
    26    21    22   ar
    27    22    23   ar
    28    23    24   ar
    29    25    26    1
    30    26    27   ar
    31    27    28   ar
    32    28    29   ar
    33    29    30    1
    34    29    31   ar
    35    31    32   ar
    36     7     3    1
    37    19    13   ar
    38    24    20   ar
    39    32    26   ar
    40    10    11    1
@<TRIPOS>MOLECULE
*****
 37 40 0 0 0
SMALL
GASTEIGER

@<TRIPOS>ATOM
      1 C         141.2591  142.4232  163.8609 C.2     1  UNL1        0.2894
      2 O         141.2950  141.5872  162.6159 O.2     1  UNL1       -0.2688
      3 N         140.0426  143.2404  164.1807 N.am    1  UNL1       -0.1703
      4 N         139.8623  144.1199  165.3823 N.2     1  UNL1       -0.1783
      5 C         138.5011  144.7447  165.2994 C.2     1  UNL1        0.0938
      6 C         137.8402  144.2512  164.0466 C.3     1  UNL1        0.0799
      7 C         138.7929  143.3215  163.3552 C.3     1  UNL1        0.1809
      8 C         138.5402  142.5997  162.0648 C.2     1  UNL1        0.2432
      9 O         138.4318  143.3708  160.7828 O.2     1  UNL1       -0.2732
     10 N         138.3960  141.1066  162.0564 N.am    1  UNL1       -0.2990
     11 H         138.4672  140.6004  162.8979 H       1  UNL1        0.1498
     12 C         138.1433  140.3847  160.7661 C.3     1  UNL1        0.1179
     13 C         139.2975  139.9279  159.9238 C.ar    1  UNL1        0.0161
     14 C         139.5051  140.5098  158.5570 C.ar    1  UNL1        0.0103
     15 C         140.6591  140.0530  157.7148 C.ar    1  UNL1        0.0575
     16 CL        140.8668  140.6349  156.3479 Cl      1  UNL1       -0.0823
     17 C         141.6056  139.0142  158.2393 C.ar    1  UNL1        0.0129
     18 C         141.3980  138.4323  159.6061 C.ar    1  UNL1        0.0199
     19 C         140.2439  138.8891  160.4484 C.ar    1  UNL1        0.0839
     20 N         140.0362  138.3072  161.8152 N.ar    1  UNL1       -0.1889
     21 C         141.1059  138.0440  162.8333 C.ar    1  UNL1        0.2258
     22 N         140.4532  137.4604  164.0512 N.ar    1  UNL1       -0.1045
     23 N         138.9800  137.3629  163.7859 N.ar    1  UNL1       -0.0222
     24 N         138.7223  137.8863  162.4040 N.ar    1  UNL1       -0.0385
     25 C         142.4398  142.4419  164.7859 C.3     1  UNL1        0.2681
     26 C         142.5301  141.4495  165.9070 C.ar    1  UNL1        0.0265
     27 C         142.7490  139.9963  165.6064 C.ar    1  UNL1        0.0020
     28 C         142.8392  139.0038  166.7274 C.ar    1  UNL1        0.0294
     29 C         142.7105  139.4645  168.1491 C.ar    1  UNL1        0.1401
     30 F         142.8008  138.4721  169.2702 F       1  UNL1       -0.2042
     31 C         142.4917  140.9177  168.4497 C.ar    1  UNL1        0.0294
     32 C         142.4014  141.9102  167.3287 C.ar    1  UNL1        0.0020
     33 O         143.5302  143.4531  164.5897 O.3     1  UNL1       -0.4381
     34 C         144.2732  143.5119  163.2880 C.2     1  UNL1        0.3176
     35 O         144.2624  144.7722  162.4746 O.2     1  UNL1       -0.2501
     36 C         145.8472  141.4991  163.7582 C.3     1  UNL1        0.0122
     37 C         145.0270  142.3105  162.7996 C.3     1  UNL1        0.1096
@<TRIPOS>BOND
     1    36    37    1
     2    37    34    1
     3    34    35    2
     4    34    33    1
     5    25    33    1
     6    25     1    1
     7     1     2    2
     8     1     3   am
     9     3     4    1
    10     4     5    2
    11     5     6    1
    12     6     7    1
    13     7     8    1
    14     8     9    2
    15     8    10   am
    16    10    12    1
    17    12    13    1
    18    13    14   ar
    19    14    15   ar
    20    15    16    1
    21    15    17   ar
    22    17    18   ar
    23    18    19   ar
    24    19    20    1
    25    20    21   ar
    26    21    22   ar
    27    22    23   ar
    28    23    24   ar
    29    25    26    1
    30    26    27   ar
    31    27    28   ar
    32    28    29   ar
    33    29    30    1
    34    29    31   ar
    35    31    32   ar
    36     7     3    1
    37    19    13   ar
    38    24    20   ar
    39    32    26   ar
    40    10    11    1
@<TRIPOS>MOLECULE
*****
 37 40 0 0 0
SMALL
GASTEIGER

@<TRIPOS>ATOM
      1 C         140.9224  141.6466  164.9822 C.2     1  UNL1        0.2894
      2 O         140.8266  142.9333  164.2172 O.2     1  UNL1       -0.2688
      3 N         142.1073  140.7469  164.7911 N.am    1  UNL1       -0.1703
      4 N         142.3398  139.4363  165.4826 N.2     1  UNL1       -0.1783
      5 C         143.6440  138.8792  164.9938 C.2     1  UNL1        0.0938
      6 C         144.2174  139.8455  164.0001 C.3     1  UNL1        0.0799
      7 C         143.2677  140.9998  163.8749 C.3     1  UNL1        0.1809
      8 C         143.4469  142.1968  162.9889 C.2     1  UNL1        0.2432
      9 O         144.5465  143.1783  163.2676 O.2     1  UNL1       -0.2732
     10 N         142.5265  142.4125  161.8242 N.am    1  UNL1       -0.2990
     11 H         141.8048  141.7683  161.6413 H       1  UNL1        0.1498
     12 C         142.7058  143.6095  160.9383 C.3     1  UNL1        0.1179
     13 C         142.1883  143.5849  159.5305 C.ar    1  UNL1        0.0161
     14 C         143.1307  143.3419  158.3892 C.ar    1  UNL1        0.0103
     15 C         142.6133  143.3174  156.9815 C.ar    1  UNL1        0.0575
     16 CL        143.5557  143.0744  155.8401 Cl      1  UNL1       -0.0823
     17 C         141.1534  143.5358  156.7152 C.ar    1  UNL1        0.0129
     18 C         140.2109  143.7788  157.8565 C.ar    1  UNL1        0.0199
     19 C         140.7284  143.8033  159.2642 C.ar    1  UNL1        0.0839
     20 N         139.7859  144.0463  160.4056 N.ar    1  UNL1       -0.1889
     21 C         138.8891  143.0257  161.0411 C.ar    1  UNL1        0.2258
     22 N         138.1237  143.7012  162.1401 N.ar    1  UNL1       -0.1045
     23 N         138.5476  145.1395  162.1839 N.ar    1  UNL1       -0.0222
     24 N         139.5749  145.3527  161.1119 N.ar    1  UNL1       -0.0385
     25 C         139.8333  141.2596  165.9383 C.3     1  UNL1        0.2681
     26 C         140.0066  141.4981  167.4090 C.ar    1  UNL1        0.0265
     27 C         139.6589  140.4180  168.3900 C.ar    1  UNL1        0.0020
     28 C         139.8322  140.6564  169.8608 C.ar    1  UNL1        0.0294
     29 C         140.3534  141.9749  170.3505 C.ar    1  UNL1        0.1401
     30 F         140.5267  142.2135  171.8212 F       1  UNL1       -0.2042
     31 C         140.7011  143.0551  169.3695 C.ar    1  UNL1        0.0294
     32 C         140.5278  142.8167  167.8987 C.ar    1  UNL1        0.0020
     33 O         138.5708  140.6342  165.4236 O.3     1  UNL1       -0.4381
     34 C         138.6123  139.2779  164.7842 C.2     1  UNL1        0.3176
     35 O         138.6990  139.1546  163.2919 O.2     1  UNL1       -0.2501
     36 C         137.6353  137.9786  166.8110 C.3     1  UNL1        0.0122
     37 C         138.5670  138.0449  165.6373 C.3     1  UNL1        0.1096
@<TRIPOS>BOND
     1    36    37    1
     2    37    34    1
     3    34    35    2
     4    34    33    1
     5    25    33    1
     6    25     1    1
     7     1     2    2
     8     1     3   am
     9     3     4    1
    10     4     5    2
    11     5     6    1
    12     6     7    1
    13     7     8    1
    14     8     9    2
    15     8    10   am
    16    10    12    1
    17    12    13    1
    18    13    14   ar
    19    14    15   ar
    20    15    16    1
    21    15    17   ar
    22    17    18   ar
    23    18    19   ar
    24    19    20    1
    25    20    21   ar
    26    21    22   ar
    27    22    23   ar
    28    23    24   ar
    29    25    26    1
    30    26    27   ar
    31    27    28   ar
    32    28    29   ar
    33    29    30    1
    34    29    31   ar
    35    31    32   ar
    36     7     3    1
    37    19    13   ar
    38    24    20   ar
    39    32    26   ar
    40    10    11    1
@<TRIPOS>MOLECULE
*****
 37 40 0 0 0
SMALL
GASTEIGER

@<TRIPOS>ATOM
      1 C         140.7741  141.1188  164.4701 C.2     1  UNL1        0.2894
      2 O         141.5193  142.3322  163.9986 O.2     1  UNL1       -0.2688
      3 N         141.1608  139.7592  163.9680 N.am    1  UNL1       -0.1703
      4 N         140.5114  138.4615  164.3478 N.2     1  UNL1       -0.1783
      5 C         141.2140  137.3589  163.6126 C.2     1  UNL1        0.0938
      6 C         142.2976  137.9751  162.7784 C.3     1  UNL1        0.0799
      7 C         142.2648  139.4586  162.9981 C.3     1  UNL1        0.1809
      8 C         143.1759  140.4648  162.3598 C.2     1  UNL1        0.2432
      9 O         144.6494  140.4251  162.6381 O.2     1  UNL1       -0.2732
     10 N         142.6136  141.5107  161.4433 N.am    1  UNL1       -0.2990
     11 H         141.6466  141.5368  161.2607 H       1  UNL1        0.1498
     12 C         143.5248  142.5169  160.8051 C.3     1  UNL1        0.1179
     13 C         143.5480  142.6675  159.3128 C.ar    1  UNL1        0.0161
     14 C         144.6924  142.1087  158.5204 C.ar    1  UNL1        0.0103
     15 C         144.7156  142.2593  157.0282 C.ar    1  UNL1        0.0575
     16 CL        145.8601  141.7005  156.2356 Cl      1  UNL1       -0.0823
     17 C         143.5943  142.9686  156.3284 C.ar    1  UNL1        0.0129
     18 C         142.4499  143.5273  157.1208 C.ar    1  UNL1        0.0199
     19 C         142.4267  143.3768  158.6131 C.ar    1  UNL1        0.0839
     20 N         141.2823  143.9356  159.4056 N.ar    1  UNL1       -0.1889
     21 C         141.0440  145.3852  159.7082 C.ar    1  UNL1        0.2258
     22 N         139.7896  145.4883  160.5243 N.ar    1  UNL1       -0.1045
     23 N         139.2526  144.1023  160.7260 N.ar    1  UNL1       -0.0222
     24 N         140.1751  143.1427  160.0346 N.ar    1  UNL1       -0.0385
     25 C         139.6423  141.2650  165.4435 C.3     1  UNL1        0.2681
     26 C         139.9261  141.3800  166.9119 C.ar    1  UNL1        0.0265
     27 C         140.4612  142.6637  167.4739 C.ar    1  UNL1        0.0020
     28 C         140.7450  142.7788  168.9423 C.ar    1  UNL1        0.0294
     29 C         140.4938  141.6103  169.8487 C.ar    1  UNL1        0.1401
     30 F         140.7776  141.7254  171.3170 F       1  UNL1       -0.2042
     31 C         139.9587  140.3267  169.2866 C.ar    1  UNL1        0.0294
     32 C         139.6748  140.2115  167.8182 C.ar    1  UNL1        0.0020
     33 O         138.2267  141.2961  164.9485 O.3     1  UNL1       -0.4381
     34 C         137.7538  142.4391  164.1001 C.2     1  UNL1        0.3176
     35 O         137.2451  142.1828  162.7125 O.2     1  UNL1       -0.2501
     36 C         139.0136  144.6843  164.4493 C.3     1  UNL1        0.0122
     37 C         137.7896  143.8384  164.6393 C.3     1  UNL1        0.1096
@<TRIPOS>BOND
     1    36    37    1
     2    37    34    1
     3    34    35    2
     4    34    33    1
     5    25    33    1
     6    25     1    1
     7     1     2    2
     8     1     3   am
     9     3     4    1
    10     4     5    2
    11     5     6    1
    12     6     7    1
    13     7     8    1
    14     8     9    2
    15     8    10   am
    16    10    12    1
    17    12    13    1
    18    13    14   ar
    19    14    15   ar
    20    15    16    1
    21    15    17   ar
    22    17    18   ar
    23    18    19   ar
    24    19    20    1
    25    20    21   ar
    26    21    22   ar
    27    22    23   ar
    28    23    24   ar
    29    25    26    1
    30    26    27   ar
    31    27    28   ar
    32    28    29   ar
    33    29    30    1
    34    29    31   ar
    35    31    32   ar
    36     7     3    1
    37    19    13   ar
    38    24    20   ar
    39    32    26   ar
    40    10    11    1
@<TRIPOS>MOLECULE
*****
 37 40 0 0 0
SMALL
GASTEIGER

@<TRIPOS>ATOM
      1 C         141.7949  140.5742  164.6119 C.2     1  UNL1        0.2894
      2 O         141.1274  141.8357  164.1502 O.2     1  UNL1       -0.2688
      3 N         141.2512  139.2409  164.1916 N.am    1  UNL1       -0.1703
      4 N         141.8092  137.9016  164.5721 N.2     1  UNL1       -0.1783
      5 C         140.9569  136.8457  163.9327 C.2     1  UNL1        0.0938
      6 C         139.8722  137.5325  163.1570 C.3     1  UNL1        0.0799
      7 C         140.0541  139.0128  163.3170 C.3     1  UNL1        0.1809
      8 C         139.1906  140.0780  162.7091 C.2     1  UNL1        0.2432
      9 O         137.8239  140.3445  163.2669 O.2     1  UNL1       -0.2732
     10 N         139.6937  140.8768  161.5434 N.am    1  UNL1       -0.2990
     11 H         140.5907  140.7020  161.1773 H       1  UNL1        0.1498
     12 C         138.8302  141.9420  160.9355 C.3     1  UNL1        0.1179
     13 C         139.4598  143.1489  160.3052 C.ar    1  UNL1        0.0161
     14 C         139.9130  143.0984  158.8763 C.ar    1  UNL1        0.0103
     15 C         140.5425  144.3052  158.2461 C.ar    1  UNL1        0.0575
     16 CL        140.9958  144.2548  156.8170 Cl      1  UNL1       -0.0823
     17 C         140.7188  145.5626  159.0448 C.ar    1  UNL1        0.0129
     18 C         140.2656  145.6131  160.4738 C.ar    1  UNL1        0.0199
     19 C         139.6361  144.4063  161.1040 C.ar    1  UNL1        0.0839
     20 N         139.1828  144.4567  162.5330 N.ar    1  UNL1       -0.1889
     21 C         137.8243  144.0744  163.0411 C.ar    1  UNL1        0.2258
     22 N         137.8104  144.2798  164.5269 N.ar    1  UNL1       -0.1045
     23 N         139.1604  144.7890  164.9371 N.ar    1  UNL1       -0.0222
     24 N         140.0085  144.8984  163.7048 N.ar    1  UNL1       -0.0385
     25 C         143.0062  140.6461  165.4938 C.3     1  UNL1        0.2681
     26 C         142.8456  140.7430  166.9820 C.ar    1  UNL1        0.0265
     27 C         142.9192  142.0796  167.6588 C.ar    1  UNL1        0.0020
     28 C         142.7586  142.1765  169.1471 C.ar    1  UNL1        0.0294
     29 C         142.5245  140.9368  169.9584 C.ar    1  UNL1        0.1401
     30 F         142.3639  141.0336  171.4466 F       1  UNL1       -0.2042
     31 C         142.4510  139.6002  169.2816 C.ar    1  UNL1        0.0294
     32 C         142.6115  139.5033  167.7934 C.ar    1  UNL1        0.0020
     33 O         144.3779  140.6212  164.8874 O.3     1  UNL1       -0.4381
     34 C         144.9275  141.8497  164.2249 C.2     1  UNL1        0.3176
     35 O         145.8988  141.7185  163.0895 O.2     1  UNL1       -0.2501
     36 C         143.8170  144.1510  163.7551 C.3     1  UNL1        0.0122
     37 C         144.5057  143.2092  164.6978 C.3     1  UNL1        0.1096
@<TRIPOS>BOND
     1    36    37    1
     2    37    34    1
     3    34    35    2
     4    34    33    1
     5    25    33    1
     6    25     1    1
     7     1     2    2
     8     1     3   am
     9     3     4    1
    10     4     5    2
    11     5     6    1
    12     6     7    1
    13     7     8    1
    14     8     9    2
    15     8    10   am
    16    10    12    1
    17    12    13    1
    18    13    14   ar
    19    14    15   ar
    20    15    16    1
    21    15    17   ar
    22    17    18   ar
    23    18    19   ar
    24    19    20    1
    25    20    21   ar
    26    21    22   ar
    27    22    23   ar
    28    23    24   ar
    29    25    26    1
    30    26    27   ar
    31    27    28   ar
    32    28    29   ar
    33    29    30    1
    34    29    31   ar
    35    31    32   ar
    36     7     3    1
    37    19    13   ar
    38    24    20   ar
    39    32    26   ar
    40    10    11    1
@<TRIPOS>MOLECULE
*****
 37 40 0 0 0
SMALL
GASTEIGER

@<TRIPOS>ATOM
      1 C         141.0946  140.5752  164.7780 C.2     1  UNL1        0.2894
      2 O         141.0300  141.4526  163.5631 O.2     1  UNL1       -0.2688
      3 N         142.3516  139.8188  165.0909 N.am    1  UNL1       -0.1703
      4 N         142.5636  138.9079  166.2635 N.2     1  UNL1       -0.1783
      5 C         143.9603  138.3666  166.1834 C.2     1  UNL1        0.0938
      6 C         144.6114  138.9430  164.9612 C.3     1  UNL1        0.0799
      7 C         143.6172  139.8406  164.2860 C.3     1  UNL1        0.1809
      8 C         143.8480  140.6225  163.0269 C.2     1  UNL1        0.2432
      9 O         144.1996  139.9094  161.7550 O.2     1  UNL1       -0.2732
     10 N         143.7272  142.1176  163.0398 N.am    1  UNL1       -0.2990
     11 H         143.4964  142.5857  163.8746 H       1  UNL1        0.1498
     12 C         143.9580  142.8996  161.7808 C.3     1  UNL1        0.1179
     13 C         142.8068  143.5739  161.0950 C.ar    1  UNL1        0.0161
     14 C         141.9512  144.5484  161.8488 C.ar    1  UNL1        0.0103
     15 C         140.8001  145.2226  161.1630 C.ar    1  UNL1        0.0575
     16 CL        139.9445  146.1971  161.9168 Cl      1  UNL1       -0.0823
     17 C         140.5046  144.9224  159.7234 C.ar    1  UNL1        0.0129
     18 C         141.3602  143.9479  158.9695 C.ar    1  UNL1        0.0199
     19 C         142.5113  143.2736  159.6553 C.ar    1  UNL1        0.0839
     20 N         143.3670  142.2991  158.9015 N.ar    1  UNL1       -0.1889
     21 C         144.6076  142.6308  158.1264 C.ar    1  UNL1        0.2258
     22 N         145.1396  141.3585  157.5363 N.ar    1  UNL1       -0.1045
     23 N         144.2277  140.2404  157.9467 N.ar    1  UNL1       -0.0222
     24 N         143.1322  140.8217  158.7904 N.ar    1  UNL1       -0.0385
     25 C         139.9022  140.4543  165.6800 C.3     1  UNL1        0.2681
     26 C         139.9461  141.0335  167.0630 C.ar    1  UNL1        0.0265
     27 C         139.5028  140.2097  168.2355 C.ar    1  UNL1        0.0020
     28 C         139.5466  140.7888  169.6184 C.ar    1  UNL1        0.0294
     29 C         140.0339  142.1918  169.8289 C.ar    1  UNL1        0.1401
     30 F         140.0778  142.7710  171.2118 F       1  UNL1       -0.2042
     31 C         140.4772  143.0156  168.6564 C.ar    1  UNL1        0.0294
     32 C         140.4334  142.4364  167.2734 C.ar    1  UNL1        0.0020
     33 O         138.6660  139.7541  165.1990 O.3     1  UNL1       -0.4381
     34 C         138.7047  138.2849  164.8992 C.2     1  UNL1        0.3176
     35 O         139.1900  137.8046  163.5637 O.2     1  UNL1       -0.2501
     36 C         137.3631  137.7361  167.0553 C.3     1  UNL1        0.0122
     37 C         138.2581  137.2961  165.9349 C.3     1  UNL1        0.1096
@<TRIPOS>BOND
     1    36    37    1
     2    37    34    1
     3    34    35    2
     4    34    33    1
     5    25    33    1
     6    25     1    1
     7     1     2    2
     8     1     3   am
     9     3     4    1
    10     4     5    2
    11     5     6    1
    12     6     7    1
    13     7     8    1
    14     8     9    2
    15     8    10   am
    16    10    12    1
    17    12    13    1
    18    13    14   ar
    19    14    15   ar
    20    15    16    1
    21    15    17   ar
    22    17    18   ar
    23    18    19   ar
    24    19    20    1
    25    20    21   ar
    26    21    22   ar
    27    22    23   ar
    28    23    24   ar
    29    25    26    1
    30    26    27   ar
    31    27    28   ar
    32    28    29   ar
    33    29    30    1
    34    29    31   ar
    35    31    32   ar
    36     7     3    1
    37    19    13   ar
    38    24    20   ar
    39    32    26   ar
    40    10    11    1
@<TRIPOS>MOLECULE
*****
 37 40 0 0 0
SMALL
GASTEIGER

@<TRIPOS>ATOM
      1 C         141.3623  141.2819  164.9802 C.2     1  UNL1        0.2894
      2 O         141.5209  142.4230  164.0197 O.2     1  UNL1       -0.2688
      3 N         142.4729  140.2889  165.1551 N.am    1  UNL1       -0.1703
      4 N         142.4588  139.1030  166.0735 N.2     1  UNL1       -0.1783
      5 C         143.7698  138.3887  165.9283 C.2     1  UNL1        0.0938
      6 C         144.5941  139.1331  164.9203 C.3     1  UNL1        0.0799
      7 C         143.7926  140.3075  164.4424 C.3     1  UNL1        0.1809
      8 C         144.2334  141.3224  163.4296 C.2     1  UNL1        0.2432
      9 O         145.3709  142.2489  163.7423 O.2     1  UNL1       -0.2732
     10 N         143.5368  141.4107  162.1040 N.am    1  UNL1       -0.2990
     11 H         142.7902  140.8026  161.8988 H       1  UNL1        0.1498
     12 C         143.9776  142.4255  161.0913 C.3     1  UNL1        0.1179
     13 C         142.9565  143.2185  160.3305 C.ar    1  UNL1        0.0161
     14 C         142.0521  144.1695  161.0569 C.ar    1  UNL1        0.0103
     15 C         141.0311  144.9624  160.2962 C.ar    1  UNL1        0.0575
     16 CL        140.1267  145.9135  161.0225 Cl      1  UNL1       -0.0823
     17 C         140.9144  144.8042  158.8091 C.ar    1  UNL1        0.0129
     18 C         141.8187  143.8532  158.0828 C.ar    1  UNL1        0.0199
     19 C         142.8397  143.0603  158.8435 C.ar    1  UNL1        0.0839
     20 N         143.7441  142.1091  158.1171 N.ar    1  UNL1       -0.1889
     21 C         145.0202  142.4680  157.4152 C.ar    1  UNL1        0.2258
     22 N         145.5959  141.2129  156.8295 N.ar    1  UNL1       -0.1045
     23 N         144.6756  140.0781  157.1695 N.ar    1  UNL1       -0.0222
     24 N         143.5312  140.6321  157.9653 N.ar    1  UNL1       -0.0385
     25 C         140.0930  141.1337  165.7657 C.3     1  UNL1        0.2681
     26 C         140.0675  141.4869  167.2233 C.ar    1  UNL1        0.0265
     27 C         139.6438  140.4642  168.2355 C.ar    1  UNL1        0.0020
     28 C         139.6183  140.8174  169.6931 C.ar    1  UNL1        0.0294
     29 C         140.0165  142.1932  170.1385 C.ar    1  UNL1        0.1401
     30 F         139.9910  142.5464  171.5960 F       1  UNL1       -0.2042
     31 C         140.4402  143.2159  169.1263 C.ar    1  UNL1        0.0294
     32 C         140.4658  142.8628  167.6687 C.ar    1  UNL1        0.0020
     33 O         138.8493  140.6323  165.0936 O.3     1  UNL1       -0.4381
     34 C         138.0200  141.5634  164.2597 C.2     1  UNL1        0.3176
     35 O         137.2584  141.0365  163.0799 O.2     1  UNL1       -0.2501
     36 C         138.0760  144.0550  163.5258 C.3     1  UNL1        0.0122
     37 C         137.9525  143.0214  164.6057 C.3     1  UNL1        0.1096
@<TRIPOS>BOND
     1    36    37    1
     2    37    34    1
     3    34    35    2
     4    34    33    1
     5    25    33    1
     6    25     1    1
     7     1     2    2
     8     1     3   am
     9     3     4    1
    10     4     5    2
    11     5     6    1
    12     6     7    1
    13     7     8    1
    14     8     9    2
    15     8    10   am
    16    10    12    1
    17    12    13    1
    18    13    14   ar
    19    14    15   ar
    20    15    16    1
    21    15    17   ar
    22    17    18   ar
    23    18    19   ar
    24    19    20    1
    25    20    21   ar
    26    21    22   ar
    27    22    23   ar
    28    23    24   ar
    29    25    26    1
    30    26    27   ar
    31    27    28   ar
    32    28    29   ar
    33    29    30    1
    34    29    31   ar
    35    31    32   ar
    36     7     3    1
    37    19    13   ar
    38    24    20   ar
    39    32    26   ar
    40    10    11    1
@<TRIPOS>MOLECULE
*****
 37 40 0 0 0
SMALL
GASTEIGER

@<TRIPOS>ATOM
      1 C         139.6235  140.7568  164.7164 C.2     1  UNL1        0.2894
      2 O         140.1936  140.8205  163.3304 O.2     1  UNL1       -0.2688
      3 N         139.0381  139.4742  165.2283 N.am    1  UNL1       -0.1703
      4 N         138.4349  139.2599  166.5849 N.2     1  UNL1       -0.1783
      5 C         137.9771  137.8338  166.6686 C.2     1  UNL1        0.0938
      6 C         138.2974  137.1669  165.3638 C.3     1  UNL1        0.0799
      7 C         138.9532  138.1806  164.4736 C.3     1  UNL1        0.1809
      8 C         139.4387  137.9427  163.0745 C.2     1  UNL1        0.2432
      9 O         140.6542  137.0967  162.8361 O.2     1  UNL1       -0.2732
     10 N         138.7086  138.5507  161.9137 N.am    1  UNL1       -0.2990
     11 H         137.9108  139.1059  162.0701 H       1  UNL1        0.1498
     12 C         139.1941  138.3127  160.5146 C.3     1  UNL1        0.1179
     13 C         139.5388  139.4758  159.6322 C.ar    1  UNL1        0.0161
     14 C         138.4567  140.1952  158.8828 C.ar    1  UNL1        0.0103
     15 C         138.8014  141.3583  158.0006 C.ar    1  UNL1        0.0575
     16 CL        137.7193  142.0777  157.2511 Cl      1  UNL1       -0.0823
     17 C         140.2281  141.8020  157.8677 C.ar    1  UNL1        0.0129
     18 C         141.3101  141.0826  158.6171 C.ar    1  UNL1        0.0199
     19 C         140.9655  139.9195  159.4993 C.ar    1  UNL1        0.0839
     20 N         142.0475  139.2001  160.2488 N.ar    1  UNL1       -0.1889
     21 C         142.7360  139.6888  161.4886 C.ar    1  UNL1        0.2258
     22 N         143.7450  138.6564  161.8960 N.ar    1  UNL1       -0.1045
     23 N         143.6802  137.5296  160.9079 N.ar    1  UNL1       -0.0222
     24 N         142.6311  137.8657  159.8899 N.ar    1  UNL1       -0.0385
     25 C         139.6388  141.9758  165.5904 C.3     1  UNL1        0.2681
     26 C         140.7234  142.1531  166.6113 C.ar    1  UNL1        0.0265
     27 C         142.1629  142.0992  166.1932 C.ar    1  UNL1        0.0020
     28 C         143.2476  142.2765  167.2140 C.ar    1  UNL1        0.0294
     29 C         142.8927  142.5077  168.6529 C.ar    1  UNL1        0.1401
     30 F         143.9772  142.6850  169.6738 F       1  UNL1       -0.2042
     31 C         141.4531  142.5616  169.0710 C.ar    1  UNL1        0.0294
     32 C         140.3685  142.3843  168.0502 C.ar    1  UNL1        0.0020
     33 O         138.5696  143.0175  165.4434 O.3     1  UNL1       -0.4381
     34 C         138.9449  144.4631  165.3044 C.2     1  UNL1        0.3176
     35 O         138.3165  145.4903  166.1988 O.2     1  UNL1       -0.2501
     36 C         139.5071  145.1521  162.8633 C.3     1  UNL1        0.0122
     37 C         139.9485  144.8815  164.2711 C.3     1  UNL1        0.1096
@<TRIPOS>BOND
     1    36    37    1
     2    37    34    1
     3    34    35    2
     4    34    33    1
     5    25    33    1
     6    25     1    1
     7     1     2    2
     8     1     3   am
     9     3     4    1
    10     4     5    2
    11     5     6    1
    12     6     7    1
    13     7     8    1
    14     8     9    2
    15     8    10   am
    16    10    12    1
    17    12    13    1
    18    13    14   ar
    19    14    15   ar
    20    15    16    1
    21    15    17   ar
    22    17    18   ar
    23    18    19   ar
    24    19    20    1
    25    20    21   ar
    26    21    22   ar
    27    22    23   ar
    28    23    24   ar
    29    25    26    1
    30    26    27   ar
    31    27    28   ar
    32    28    29   ar
    33    29    30    1
    34    29    31   ar
    35    31    32   ar
    36     7     3    1
    37    19    13   ar
    38    24    20   ar
    39    32    26   ar
    40    10    11    1
@<TRIPOS>MOLECULE
*****
 37 40 0 0 0
SMALL
GASTEIGER

@<TRIPOS>ATOM
      1 C         141.2283  141.0123  164.9231 C.2     1  UNL1        0.2894
      2 O         141.3525  142.0353  163.8332 O.2     1  UNL1       -0.2688
      3 N         142.3542  140.0568  165.1867 N.am    1  UNL1       -0.1703
      4 N         142.3740  138.9858  166.2367 N.2     1  UNL1       -0.1783
      5 C         143.6900  138.2716  166.1456 C.2     1  UNL1        0.0938
      6 C         144.4834  138.9013  165.0392 C.3     1  UNL1        0.0799
      7 C         143.6578  140.0046  164.4466 C.3     1  UNL1        0.1809
      8 C         144.0644  140.8987  163.3130 C.2     1  UNL1        0.2432
      9 O         145.2891  141.7560  163.4360 O.2     1  UNL1       -0.2732
     10 N         143.2464  140.9355  162.0561 N.am    1  UNL1       -0.2990
     11 H         142.4426  140.3728  161.9753 H       1  UNL1        0.1498
     12 C         143.6530  141.8296  160.9225 C.3     1  UNL1        0.1179
     13 C         142.6076  142.4415  160.0377 C.ar    1  UNL1        0.0161
     14 C         142.2338  141.7751  158.7470 C.ar    1  UNL1        0.0103
     15 C         141.1884  142.3870  157.8623 C.ar    1  UNL1        0.0575
     16 CL        140.8145  141.7205  156.5715 Cl      1  UNL1       -0.0823
     17 C         140.5169  143.6654  158.2683 C.ar    1  UNL1        0.0129
     18 C         140.8908  144.3318  159.5590 C.ar    1  UNL1        0.0199
     19 C         141.9361  143.7199  160.4437 C.ar    1  UNL1        0.0839
     20 N         142.3101  144.3864  161.7345 N.ar    1  UNL1       -0.1889
     21 C         141.3700  145.0887  162.6689 C.ar    1  UNL1        0.2258
     22 N         142.1686  145.6039  163.8293 N.ar    1  UNL1       -0.1045
     23 N         143.6024  145.2199  163.6123 N.ar    1  UNL1       -0.0222
     24 N         143.6897  144.4675  162.3176 N.ar    1  UNL1       -0.0385
     25 C         139.9782  140.9448  165.7494 C.3     1  UNL1        0.2681
     26 C         140.0114  141.3472  167.1940 C.ar    1  UNL1        0.0265
     27 C         140.5174  142.7047  167.5829 C.ar    1  UNL1        0.0020
     28 C         140.5507  143.1072  169.0275 C.ar    1  UNL1        0.0294
     29 C         140.0778  142.1523  170.0832 C.ar    1  UNL1        0.1401
     30 F         140.1110  142.5547  171.5278 F       1  UNL1       -0.2042
     31 C         139.5718  140.7948  169.6943 C.ar    1  UNL1        0.0294
     32 C         139.5385  140.3923  168.2497 C.ar    1  UNL1        0.0020
     33 O         138.6949  140.4748  165.1310 O.3     1  UNL1       -0.4381
     34 C         138.5915  139.0813  164.5854 C.2     1  UNL1        0.3176
     35 O         138.3499  138.8654  163.1209 O.2     1  UNL1       -0.2501
     36 C         137.7599  137.7158  166.6333 C.3     1  UNL1        0.0122
     37 C         138.7296  137.9039  165.5044 C.3     1  UNL1        0.1096
@<TRIPOS>BOND
     1    36    37    1
     2    37    34    1
     3    34    35    2
     4    34    33    1
     5    25    33    1
     6    25     1    1
     7     1     2    2
     8     1     3   am
     9     3     4    1
    10     4     5    2
    11     5     6    1
    12     6     7    1
    13     7     8    1
    14     8     9    2
    15     8    10   am
    16    10    12    1
    17    12    13    1
    18    13    14   ar
    19    14    15   ar
    20    15    16    1
    21    15    17   ar
    22    17    18   ar
    23    18    19   ar
    24    19    20    1
    25    20    21   ar
    26    21    22   ar
    27    22    23   ar
    28    23    24   ar
    29    25    26    1
    30    26    27   ar
    31    27    28   ar
    32    28    29   ar
    33    29    30    1
    34    29    31   ar
    35    31    32   ar
    36     7     3    1
    37    19    13   ar
    38    24    20   ar
    39    32    26   ar
    40    10    11    1
