@<TRIPOS>MOLECULE
*****
 28 31 0 0 0
SMALL
GASTEIGER

@<TRIPOS>ATOM
      1 C         141.6348  140.6443  165.2553 C.3     1  UNL1        0.1686
      2 C         142.3729  139.3889  165.6148 C.3     1  UNL1        0.0595
      3 C         143.7534  139.1510  165.0787 C.3     1  UNL1        0.0615
      4 C         145.0494  139.3302  164.3449 C.3     1  UNL1        0.0175
      5 C         144.9941  140.6424  163.6203 C.3     1  UNL1        0.0175
      6 C         143.6641  141.2742  163.9062 C.3     1  UNL1        0.0615
      7 C         142.2772  141.6617  164.3597 C.3     1  UNL1        0.0595
      8 N         142.8972  140.3525  164.8075 N.3     1  UNL1       -0.2674
      9 O         140.2541  140.8823  165.7914 O.3     1  UNL1       -0.4791
     10 C         140.3414  142.5053  169.4119 C.ar    1  UNL1        0.0561
     11 C         139.6244  141.4569  170.2098 C.ar    1  UNL1        0.0047
     12 C         139.1173  140.2170  169.5350 C.ar    1  UNL1        0.0033
     13 C         139.3272  140.0255  168.0622 C.ar    1  UNL1        0.0369
     14 C         140.0442  141.0738  167.2642 C.ar    1  UNL1        0.1385
     15 C         140.5513  142.3137  167.9390 C.ar    1  UNL1        0.0414
     16 N         139.9354  144.9190  170.2832 N.am    1  UNL1       -0.3253
     17 C         140.8484  143.7452  170.0867 C.2     1  UNL1        0.2428
     18 O         142.2686  143.8113  170.5652 O.2     1  UNL1       -0.2704
     19 H         140.2683  145.7328  170.7261 H       1  UNL1        0.1453
     20 H         139.0034  144.8756  169.9691 H       1  UNL1        0.1453
     21 C         141.5167  140.5904  165.3436 C.3     1  UNL1        0.1586
     22 C         140.3950  140.9244  164.4054 C.2     1  UNL1        0.2420
     23 O         139.9969  142.3547  164.1914 O.2     1  UNL1       -0.2734
     24 N         139.6715  139.8281  163.6812 N.am    1  UNL1       -0.2784
     25 C         139.9560  138.3596  163.7937 C.3     1  UNL1        0.0935
     26 C         138.9967  137.6317  162.8993 C.3     1  UNL1        0.0233
     27 C         138.1192  138.6504  162.2340 C.3     1  UNL1        0.0233
     28 C         138.5363  140.0078  162.7173 C.3     1  UNL1        0.0935
@<TRIPOS>BOND
     1    16    17   am
     2    17    18    2
     3    17    10    1
     4    10    11   ar
     5    11    12   ar
     6    12    13   ar
     7    13    14   ar
     8    14     9    1
     9     1     9    1
    10     1     2    1
    11     3     2    1
    12     3     4    1
    13     4     5    1
    14     6     5    1
    15     6     7    1
    16     6     8    1
    17     8    21    1
    18    21    22    1
    19    22    23    2
    20    22    24   am
    21    24    25    1
    22    25    26    1
    23    26    27    1
    24    27    28    1
    25    14    15   ar
    26    15    10   ar
    27     7     1    1
    28    28    24    1
    29     8     3    1
    30    16    19    1
    31    16    20    1
@<TRIPOS>MOLECULE
*****
 28 31 0 0 0
SMALL
GASTEIGER

@<TRIPOS>ATOM
      1 C         141.9103  141.8252  164.8188 C.3     1  UNL1        0.1686
      2 C         143.0637  142.6679  165.2764 C.3     1  UNL1        0.0595
      3 C         144.4389  142.4155  164.7332 C.3     1  UNL1        0.0615
      4 C         145.5806  141.8297  163.9564 C.3     1  UNL1        0.0175
      5 C         145.0427  140.7109  163.1145 C.3     1  UNL1        0.0175
      6 C         143.5686  140.6052  163.3709 C.3     1  UNL1        0.0615
      7 C         142.1321  140.7301  163.8180 C.3     1  UNL1        0.0595
      8 N         143.1954  141.6587  164.3713 N.3     1  UNL1       -0.2674
      9 O         140.5350  142.0776  165.3620 O.3     1  UNL1       -0.4791
     10 C         140.0261  142.0605  169.2978 C.ar    1  UNL1        0.0561
     11 C         139.4618  140.6862  169.5047 C.ar    1  UNL1        0.0047
     12 C         139.2552  139.7757  168.3307 C.ar    1  UNL1        0.0033
     13 C         139.6130  140.2395  166.9498 C.ar    1  UNL1        0.0369
     14 C         140.1773  141.6138  166.7429 C.ar    1  UNL1        0.1385
     15 C         140.3838  142.5243  167.9168 C.ar    1  UNL1        0.0414
     16 N         140.1900  144.4586  170.2839 N.am    1  UNL1       -0.3253
     17 C         140.2326  142.9710  170.4718 C.2     1  UNL1        0.2428
     18 O         140.4819  142.3939  171.8338 O.2     1  UNL1       -0.2704
     19 H         140.3255  145.0562  171.0544 H       1  UNL1        0.1453
     20 H         140.0264  144.8374  169.3900 H       1  UNL1        0.1453
     21 C         141.8202  141.9111  164.9145 C.3     1  UNL1        0.1586
     22 C         140.6699  142.1225  163.9752 C.2     1  UNL1        0.2420
     23 O         139.7413  140.9876  163.6593 O.2     1  UNL1       -0.2734
     24 N         140.4483  143.4687  163.3520 N.am    1  UNL1       -0.2784
     25 C         141.2889  144.6914  163.5719 C.3     1  UNL1        0.0935
     26 C         140.7072  145.8069  162.7551 C.3     1  UNL1        0.0233
     27 C         139.5069  145.2738  162.0304 C.3     1  UNL1        0.0233
     28 C         139.3469  143.8286  162.3993 C.3     1  UNL1        0.0935
@<TRIPOS>BOND
     1    16    17   am
     2    17    18    2
     3    17    10    1
     4    10    11   ar
     5    11    12   ar
     6    12    13   ar
     7    13    14   ar
     8    14     9    1
     9     1     9    1
    10     1     2    1
    11     3     2    1
    12     3     4    1
    13     4     5    1
    14     6     5    1
    15     6     7    1
    16     6     8    1
    17     8    21    1
    18    21    22    1
    19    22    23    2
    20    22    24   am
    21    24    25    1
    22    25    26    1
    23    26    27    1
    24    27    28    1
    25    14    15   ar
    26    15    10   ar
    27     7     1    1
    28    28    24    1
    29     8     3    1
    30    16    19    1
    31    16    20    1
@<TRIPOS>MOLECULE
*****
 28 31 0 0 0
SMALL
GASTEIGER

@<TRIPOS>ATOM
      1 C         139.5145  141.2523  165.0169 C.3     1  UNL1        0.1686
      2 C         140.6228  142.2078  164.6874 C.3     1  UNL1        0.0595
      3 C         140.3031  143.5674  164.1403 C.3     1  UNL1        0.0615
      4 C         139.5465  144.7620  163.6399 C.3     1  UNL1        0.0175
      5 C         138.0821  144.4437  163.7046 C.3     1  UNL1        0.0175
      6 C         137.9337  143.0522  164.2449 C.3     1  UNL1        0.0615
      7 C         138.0864  141.6564  164.7994 C.3     1  UNL1        0.0595
      8 N         139.3063  142.5106  164.5142 N.3     1  UNL1       -0.2674
      9 O         139.8342  139.8927  165.5641 O.3     1  UNL1       -0.4791
     10 C         140.8715  139.9300  169.3945 C.ar    1  UNL1        0.0561
     11 C         142.3046  139.4964  169.3043 C.ar    1  UNL1        0.0047
     12 C         142.9142  139.1949  167.9674 C.ar    1  UNL1        0.0033
     13 C         142.0908  139.3270  166.7207 C.ar    1  UNL1        0.0369
     14 C         140.6577  139.7606  166.8108 C.ar    1  UNL1        0.1385
     15 C         140.0480  140.0621  168.1477 C.ar    1  UNL1        0.0414
     16 N         139.6325  139.1316  171.5340 N.am    1  UNL1       -0.3253
     17 C         140.2619  140.2315  170.7314 C.2     1  UNL1        0.2428
     18 O         140.2817  141.6330  171.2659 O.2     1  UNL1       -0.2704
     19 H         139.2324  139.3295  172.4115 H       1  UNL1        0.1453
     20 H         139.6195  138.2118  171.1832 H       1  UNL1        0.1453
     21 C         139.6261  141.1511  165.0613 C.3     1  UNL1        0.1586
     22 C         138.8953  139.9455  164.5488 C.2     1  UNL1        0.2420
     23 O         137.8889  139.2525  165.4187 O.2     1  UNL1       -0.2734
     24 N         139.1711  139.4329  163.1664 N.am    1  UNL1       -0.2784
     25 C         140.1446  140.0184  162.1868 C.3     1  UNL1        0.0935
     26 C         140.0969  139.1922  160.9358 C.3     1  UNL1        0.0233
     27 C         139.0939  138.0960  161.1421 C.3     1  UNL1        0.0233
     28 C         138.5218  138.2449  162.5207 C.3     1  UNL1        0.0935
@<TRIPOS>BOND
     1    16    17   am
     2    17    18    2
     3    17    10    1
     4    10    11   ar
     5    11    12   ar
     6    12    13   ar
     7    13    14   ar
     8    14     9    1
     9     1     9    1
    10     1     2    1
    11     3     2    1
    12     3     4    1
    13     4     5    1
    14     6     5    1
    15     6     7    1
    16     6     8    1
    17     8    21    1
    18    21    22    1
    19    22    23    2
    20    22    24   am
    21    24    25    1
    22    25    26    1
    23    26    27    1
    24    27    28    1
    25    14    15   ar
    26    15    10   ar
    27     7     1    1
    28    28    24    1
    29     8     3    1
    30    16    19    1
    31    16    20    1
@<TRIPOS>MOLECULE
*****
 28 31 0 0 0
SMALL
GASTEIGER

@<TRIPOS>ATOM
      1 C         140.8324  141.9218  165.2311 C.3     1  UNL1        0.1686
      2 C         140.4222  143.2207  165.8593 C.3     1  UNL1        0.0595
      3 C         139.1591  143.9002  165.4203 C.3     1  UNL1        0.0615
      4 C         137.8788  144.2043  164.7003 C.3     1  UNL1        0.0175
      5 C         137.6233  143.0968  163.7214 C.3     1  UNL1        0.0175
      6 C         138.7456  142.1082  163.8365 C.3     1  UNL1        0.0615
      7 C         139.9795  141.3025  164.1639 C.3     1  UNL1        0.0595
      8 N         139.6948  142.6048  164.8864 N.3     1  UNL1       -0.2674
      9 O         142.0956  141.2422  165.6702 O.3     1  UNL1       -0.4791
     10 C         143.2057  141.8868  169.4254 C.ar    1  UNL1        0.0561
     11 C         142.8797  140.5620  170.0488 C.ar    1  UNL1        0.0047
     12 C         142.2923  139.4640  169.2126 C.ar    1  UNL1        0.0033
     13 C         142.0310  139.6907  167.7531 C.ar    1  UNL1        0.0369
     14 C         142.3570  141.0155  167.1297 C.ar    1  UNL1        0.1385
     15 C         142.9443  142.1136  167.9659 C.ar    1  UNL1        0.0414
     16 N         145.2814  143.1547  170.3387 N.am    1  UNL1       -0.3253
     17 C         143.7930  142.9849  170.2616 C.2     1  UNL1        0.2428
     18 O         142.8919  143.9132  171.0209 O.2     1  UNL1       -0.2704
     19 H         145.6669  143.8754  170.8875 H       1  UNL1        0.1453
     20 H         145.8728  142.5454  169.8404 H       1  UNL1        0.1453
     21 C         140.9579  141.9253  165.3255 C.3     1  UNL1        0.1586
     22 C         142.0122  141.5775  164.3167 C.2     1  UNL1        0.2420
     23 O         142.2325  140.1464  163.9251 O.2     1  UNL1       -0.2734
     24 N         142.8460  142.6609  163.6996 N.am    1  UNL1       -0.2784
     25 C         142.7409  144.1286  163.9909 C.3     1  UNL1        0.0935
     26 C         143.7614  144.8416  163.1541 C.3     1  UNL1        0.0233
     27 C         144.4973  143.8145  162.3456 C.3     1  UNL1        0.0233
     28 C         143.9315  142.4668  162.6827 C.3     1  UNL1        0.0935
@<TRIPOS>BOND
     1    16    17   am
     2    17    18    2
     3    17    10    1
     4    10    11   ar
     5    11    12   ar
     6    12    13   ar
     7    13    14   ar
     8    14     9    1
     9     1     9    1
    10     1     2    1
    11     3     2    1
    12     3     4    1
    13     4     5    1
    14     6     5    1
    15     6     7    1
    16     6     8    1
    17     8    21    1
    18    21    22    1
    19    22    23    2
    20    22    24   am
    21    24    25    1
    22    25    26    1
    23    26    27    1
    24    27    28    1
    25    14    15   ar
    26    15    10   ar
    27     7     1    1
    28    28    24    1
    29     8     3    1
    30    16    19    1
    31    16    20    1
@<TRIPOS>MOLECULE
*****
 28 31 0 0 0
SMALL
GASTEIGER

@<TRIPOS>ATOM
      1 C         141.8212  141.7550  165.2440 C.3     1  UNL1        0.1686
      2 C         143.2552  142.1191  165.4910 C.3     1  UNL1        0.0595
      3 C         143.7966  143.4219  164.9814 C.3     1  UNL1        0.0615
      4 C         143.8965  144.7634  164.3179 C.3     1  UNL1        0.0175
      5 C         142.5532  145.0951  163.7386 C.3     1  UNL1        0.0175
      6 C         141.6232  143.9586  164.0442 C.3     1  UNL1        0.0615
      7 C         140.9286  142.6936  164.4876 C.3     1  UNL1        0.0595
      8 N         142.3917  142.9244  164.8123 N.3     1  UNL1       -0.2674
      9 O         141.2798  140.4521  165.7536 O.3     1  UNL1       -0.4791
     10 C         141.9669  139.4392  169.5287 C.ar    1  UNL1        0.0561
     11 C         140.6721  139.8415  170.1703 C.ar    1  UNL1        0.0047
     12 C         139.5799  140.4473  169.3396 C.ar    1  UNL1        0.0033
     13 C         139.7824  140.6508  167.8675 C.ar    1  UNL1        0.0369
     14 C         141.0772  140.2486  167.2258 C.ar    1  UNL1        0.1385
     15 C         142.1695  139.6428  168.0564 C.ar    1  UNL1        0.0414
     16 N         143.8003  139.6767  171.3542 N.am    1  UNL1       -0.3253
     17 C         143.0591  138.8334  170.3593 C.2     1  UNL1        0.2428
     18 O         143.4103  137.3843  170.1952 O.2     1  UNL1       -0.2704
     19 H         144.5172  139.2790  171.8994 H       1  UNL1        0.1453
     20 H         143.5698  140.6277  171.4619 H       1  UNL1        0.1453
     21 C         141.8503  141.6217  165.3218 C.3     1  UNL1        0.1586
     22 C         141.1846  140.6653  164.3772 C.2     1  UNL1        0.2420
     23 O         139.6878  140.6092  164.2978 O.2     1  UNL1       -0.2734
     24 N         142.0158  139.7651  163.5120 N.am    1  UNL1       -0.2784
     25 C         143.5145  139.7088  163.4817 C.3     1  UNL1        0.0935
     26 C         143.9192  138.6720  162.4762 C.3     1  UNL1        0.0233
     27 C         142.6706  138.0874  161.8849 C.3     1  UNL1        0.0233
     28 C         141.4943  138.7630  162.5252 C.3     1  UNL1        0.0935
@<TRIPOS>BOND
     1    16    17   am
     2    17    18    2
     3    17    10    1
     4    10    11   ar
     5    11    12   ar
     6    12    13   ar
     7    13    14   ar
     8    14     9    1
     9     1     9    1
    10     1     2    1
    11     3     2    1
    12     3     4    1
    13     4     5    1
    14     6     5    1
    15     6     7    1
    16     6     8    1
    17     8    21    1
    18    21    22    1
    19    22    23    2
    20    22    24   am
    21    24    25    1
    22    25    26    1
    23    26    27    1
    24    27    28    1
    25    14    15   ar
    26    15    10   ar
    27     7     1    1
    28    28    24    1
    29     8     3    1
    30    16    19    1
    31    16    20    1
@<TRIPOS>MOLECULE
*****
 28 31 0 0 0
SMALL
GASTEIGER

@<TRIPOS>ATOM
      1 C         139.7931  142.0444  164.8934 C.3     1  UNL1        0.1686
      2 C         138.3206  142.2787  164.7297 C.3     1  UNL1        0.0595
      3 C         137.8301  143.3420  163.7922 C.3     1  UNL1        0.0615
      4 C         137.8014  144.4593  162.7918 C.3     1  UNL1        0.0175
      5 C         139.2185  144.8025  162.4396 C.3     1  UNL1        0.0175
      6 C         140.1230  143.8974  163.2224 C.3     1  UNL1        0.0615
      7 C         140.7750  142.8733  164.1197 C.3     1  UNL1        0.0595
      8 N         139.2649  142.9947  164.0583 N.3     1  UNL1       -0.2674
      9 O         140.2836  140.9811  165.8309 O.3     1  UNL1       -0.4791
     10 C         140.4078  142.5312  169.4821 C.ar    1  UNL1        0.0561
     11 C         139.7157  141.4583  170.2693 C.ar    1  UNL1        0.0047
     12 C         139.2129  140.2262  169.5770 C.ar    1  UNL1        0.0033
     13 C         139.4022  140.0672  168.0976 C.ar    1  UNL1        0.0369
     14 C         140.0943  141.1402  167.3104 C.ar    1  UNL1        0.1385
     15 C         140.5971  142.3722  168.0026 C.ar    1  UNL1        0.0414
     16 N         140.0108  144.9524  170.3367 N.am    1  UNL1       -0.3253
     17 C         140.9106  143.7633  170.1744 C.2     1  UNL1        0.2428
     18 O         142.3132  143.8062  170.7045 O.2     1  UNL1       -0.2704
     19 H         140.3408  145.7611  170.7911 H       1  UNL1        0.1453
     20 H         139.0902  144.9243  169.9888 H       1  UNL1        0.1453
     21 C         139.7554  141.9315  164.9958 C.3     1  UNL1        0.1586
     22 C         140.6872  140.8658  164.4997 C.2     1  UNL1        0.2420
     23 O         142.1627  140.9884  164.7402 O.2     1  UNL1       -0.2734
     24 N         140.1435  139.6776  163.7632 N.am    1  UNL1       -0.2784
     25 C         138.6994  139.4197  163.4497 C.3     1  UNL1        0.0935
     26 C         138.6118  138.1214  162.7036 C.3     1  UNL1        0.0233
     27 C         140.0017  137.5768  162.5559 C.3     1  UNL1        0.0233
     28 C         140.9483  138.5387  163.2109 C.3     1  UNL1        0.0935
@<TRIPOS>BOND
     1    16    17   am
     2    17    18    2
     3    17    10    1
     4    10    11   ar
     5    11    12   ar
     6    12    13   ar
     7    13    14   ar
     8    14     9    1
     9     1     9    1
    10     1     2    1
    11     3     2    1
    12     3     4    1
    13     4     5    1
    14     6     5    1
    15     6     7    1
    16     6     8    1
    17     8    21    1
    18    21    22    1
    19    22    23    2
    20    22    24   am
    21    24    25    1
    22    25    26    1
    23    26    27    1
    24    27    28    1
    25    14    15   ar
    26    15    10   ar
    27     7     1    1
    28    28    24    1
    29     8     3    1
    30    16    19    1
    31    16    20    1
@<TRIPOS>MOLECULE
*****
 28 31 0 0 0
SMALL
GASTEIGER

@<TRIPOS>ATOM
      1 C         141.9096  141.7885  165.0936 C.3     1  UNL1        0.1686
      2 C         143.3487  142.2048  165.1679 C.3     1  UNL1        0.0595
      3 C         143.7641  143.5589  164.6742 C.3     1  UNL1        0.0615
      4 C         143.7199  144.9398  164.0902 C.3     1  UNL1        0.0175
      5 C         142.2980  145.2409  163.7194 C.3     1  UNL1        0.0175
      6 C         141.4634  144.0461  164.0743 C.3     1  UNL1        0.0615
      7 C         140.8859  142.7263  164.5257 C.3     1  UNL1        0.0595
      8 N         142.3696  143.0065  164.6644 N.3     1  UNL1       -0.2674
      9 O         141.4940  140.4343  165.5873 O.3     1  UNL1       -0.4791
     10 C         140.2365  140.2810  169.3482 C.ar    1  UNL1        0.0561
     11 C         141.3910  139.5841  170.0050 C.ar    1  UNL1        0.0047
     12 C         142.5799  139.1706  169.1892 C.ar    1  UNL1        0.0033
     13 C         142.6142  139.4540  167.7167 C.ar    1  UNL1        0.0369
     14 C         141.4597  140.1509  167.0599 C.ar    1  UNL1        0.1385
     15 C         140.2708  140.5644  167.8756 C.ar    1  UNL1        0.0414
     16 N         137.9252  139.7272  170.3977 N.am    1  UNL1       -0.3253
     17 C         139.0476  140.6945  170.1640 C.2     1  UNL1        0.2428
     18 O         138.9810  142.0754  170.7462 O.2     1  UNL1       -0.2704
     19 H         137.1449  139.9986  170.9332 H       1  UNL1        0.1453
     20 H         137.9688  138.8209  170.0156 H       1  UNL1        0.1453
     21 C         141.9541  141.6524  165.1581 C.3     1  UNL1        0.1586
     22 C         141.2436  140.7042  164.2382 C.2     1  UNL1        0.2420
     23 O         139.7444  140.6822  164.1960 O.2     1  UNL1       -0.2734
     24 N         142.0323  139.7782  163.3607 N.am    1  UNL1       -0.2784
     25 C         143.5281  139.6869  163.2942 C.3     1  UNL1        0.0935
     26 C         143.8840  138.6331  162.2879 C.3     1  UNL1        0.0233
     27 C         142.6081  138.0729  161.7324 C.3     1  UNL1        0.0233
     28 C         141.4638  138.7806  162.3954 C.3     1  UNL1        0.0935
@<TRIPOS>BOND
     1    16    17   am
     2    17    18    2
     3    17    10    1
     4    10    11   ar
     5    11    12   ar
     6    12    13   ar
     7    13    14   ar
     8    14     9    1
     9     1     9    1
    10     1     2    1
    11     3     2    1
    12     3     4    1
    13     4     5    1
    14     6     5    1
    15     6     7    1
    16     6     8    1
    17     8    21    1
    18    21    22    1
    19    22    23    2
    20    22    24   am
    21    24    25    1
    22    25    26    1
    23    26    27    1
    24    27    28    1
    25    14    15   ar
    26    15    10   ar
    27     7     1    1
    28    28    24    1
    29     8     3    1
    30    16    19    1
    31    16    20    1
@<TRIPOS>MOLECULE
*****
 28 31 0 0 0
SMALL
GASTEIGER

@<TRIPOS>ATOM
      1 C         141.2584  143.0532  164.7366 C.3     1  UNL1        0.1686
      2 C         139.8552  142.8722  164.2384 C.3     1  UNL1        0.0595
      3 C         139.2667  143.8630  163.2782 C.3     1  UNL1        0.0615
      4 C         139.1026  145.0466  162.3715 C.3     1  UNL1        0.0175
      5 C         140.3831  145.8276  162.3924 C.3     1  UNL1        0.0175
      6 C         141.3386  145.1266  163.3121 C.3     1  UNL1        0.0615
      7 C         142.0731  144.2249  164.2746 C.3     1  UNL1        0.0595
      8 N         140.6486  143.9124  163.8595 N.3     1  UNL1       -0.2674
      9 O         141.8471  142.0623  165.6968 O.3     1  UNL1       -0.4791
     10 C         140.2368  142.0713  169.3240 C.ar    1  UNL1        0.0561
     11 C         139.5007  140.7644  169.3106 C.ar    1  UNL1        0.0047
     12 C         139.5467  139.8902  168.0926 C.ar    1  UNL1        0.0033
     13 C         140.3288  140.3228  166.8880 C.ar    1  UNL1        0.0369
     14 C         141.0649  141.6297  166.9014 C.ar    1  UNL1        0.1385
     15 C         141.0189  142.5039  168.1194 C.ar    1  UNL1        0.0414
     16 N         140.0111  144.4275  170.3953 N.am    1  UNL1       -0.3253
     17 C         140.1908  142.9455  170.5420 C.2     1  UNL1        0.2428
     18 O         140.3245  142.3377  171.9070 O.2     1  UNL1       -0.2704
     19 H         139.9809  145.0012  171.1947 H       1  UNL1        0.1453
     20 H         139.9234  144.8263  169.4995 H       1  UNL1        0.1453
     21 C         141.2371  142.9216  164.8197 C.3     1  UNL1        0.1586
     22 C         142.6466  142.4432  164.6338 C.2     1  UNL1        0.2420
     23 O         143.7346  142.9465  165.5354 O.2     1  UNL1       -0.2734
     24 N         142.9680  141.4614  163.5463 N.am    1  UNL1       -0.2784
     25 C         141.9904  140.8727  162.5727 C.3     1  UNL1        0.0935
     26 C         142.7417  139.9434  161.6661 C.3     1  UNL1        0.0233
     27 C         144.1836  139.9577  162.0793 C.3     1  UNL1        0.0233
     28 C         144.3234  140.8959  163.2413 C.3     1  UNL1        0.0935
@<TRIPOS>BOND
     1    16    17   am
     2    17    18    2
     3    17    10    1
     4    10    11   ar
     5    11    12   ar
     6    12    13   ar
     7    13    14   ar
     8    14     9    1
     9     1     9    1
    10     1     2    1
    11     3     2    1
    12     3     4    1
    13     4     5    1
    14     6     5    1
    15     6     7    1
    16     6     8    1
    17     8    21    1
    18    21    22    1
    19    22    23    2
    20    22    24   am
    21    24    25    1
    22    25    26    1
    23    26    27    1
    24    27    28    1
    25    14    15   ar
    26    15    10   ar
    27     7     1    1
    28    28    24    1
    29     8     3    1
    30    16    19    1
    31    16    20    1
@<TRIPOS>MOLECULE
*****
 28 31 0 0 0
SMALL
GASTEIGER

@<TRIPOS>ATOM
      1 C         141.0880  140.1821  164.9622 C.3     1  UNL1        0.1686
      2 C         139.8681  139.4458  165.4311 C.3     1  UNL1        0.0595
      3 C         139.1650  138.4951  164.5082 C.3     1  UNL1        0.0615
      4 C         138.8061  137.6840  163.2985 C.3     1  UNL1        0.0175
      5 C         139.8088  137.9853  162.2243 C.3     1  UNL1        0.0175
      6 C         140.7873  138.9826  162.7701 C.3     1  UNL1        0.0615
      7 C         141.6047  139.9676  163.5704 C.3     1  UNL1        0.0595
      8 N         140.3895  139.2977  164.1816 N.3     1  UNL1       -0.2674
      9 O         141.7911  141.1329  165.8851 O.3     1  UNL1       -0.4791
     10 C         141.1728  141.5836  169.7792 C.ar    1  UNL1        0.0561
     11 C         141.8347  140.3493  170.3161 C.ar    1  UNL1        0.0047
     12 C         142.4820  139.3761  169.3760 C.ar    1  UNL1        0.0033
     13 C         142.4675  139.6373  167.8990 C.ar    1  UNL1        0.0369
     14 C         141.8056  140.8717  167.3622 C.ar    1  UNL1        0.1385
     15 C         141.1583  141.8448  168.3022 C.ar    1  UNL1        0.0414
     16 N         140.0637  143.8922  170.2159 N.am    1  UNL1       -0.3253
     17 C         140.5255  142.5568  170.7194 C.2     1  UNL1        0.2428
     18 O         140.3399  142.1946  172.1632 O.2     1  UNL1       -0.2704
     19 H         139.6388  144.5309  170.8329 H       1  UNL1        0.1453
     20 H         140.1854  144.1299  169.2683 H       1  UNL1        0.1453
     21 C         141.0925  140.2484  165.1045 C.3     1  UNL1        0.1586
     22 C         141.4126  141.6403  164.6459 C.2     1  UNL1        0.2420
     23 O         142.8199  142.0025  164.2741 O.2     1  UNL1       -0.2734
     24 N         140.3252  142.6698  164.5590 N.am    1  UNL1       -0.2784
     25 C         138.8793  142.4558  164.8958 C.3     1  UNL1        0.0935
     26 C         138.1533  143.7480  164.6650 C.3     1  UNL1        0.0233
     27 C         139.1506  144.7607  164.1856 C.3     1  UNL1        0.0233
     28 C         140.4929  144.0944  164.1201 C.3     1  UNL1        0.0935
@<TRIPOS>BOND
     1    16    17   am
     2    17    18    2
     3    17    10    1
     4    10    11   ar
     5    11    12   ar
     6    12    13   ar
     7    13    14   ar
     8    14     9    1
     9     1     9    1
    10     1     2    1
    11     3     2    1
    12     3     4    1
    13     4     5    1
    14     6     5    1
    15     6     7    1
    16     6     8    1
    17     8    21    1
    18    21    22    1
    19    22    23    2
    20    22    24   am
    21    24    25    1
    22    25    26    1
    23    26    27    1
    24    27    28    1
    25    14    15   ar
    26    15    10   ar
    27     7     1    1
    28    28    24    1
    29     8     3    1
    30    16    19    1
    31    16    20    1
