@<TRIPOS>MOLECULE
*****
 38 42 0 0 0
SMALL
GASTEIGER

@<TRIPOS>ATOM
      1 C         143.7998  141.6691  163.8649 C.3     1  UNL1        0.0080
      2 C         143.9885  140.1814  163.9028 C.3     1  UNL1        0.0177
      3 C         143.7497  139.3634  162.6684 C.3     1  UNL1        0.0721
      4 N         143.3223  140.0330  161.3960 N.3     1  UNL1       -0.2736
      5 C         143.1336  141.5205  161.3581 C.3     1  UNL1        0.0776
      6 C         143.3723  142.3386  162.5925 C.3     1  UNL1        0.0525
      7 C         143.0835  139.2150  160.1616 C.3     1  UNL1        0.0583
      8 C         142.8941  139.5223  158.7057 C.3     1  UNL1        0.0220
      9 C         142.7458  138.0581  158.4158 C.3     1  UNL1        0.0452
     10 C         142.9352  137.7507  159.8717 C.3     1  UNL1        0.0220
     11 C         142.5071  137.2401  157.1814 C.ar    1  UNL1        0.0860
     12 N         143.6671  136.6420  156.4420 N.ar    1  UNL1       -0.2459
     13 C         143.4283  135.8239  155.2075 C.ar    1  UNL1        0.0986
     14 C         142.0296  135.6040  154.7125 C.ar    1  UNL1        0.0230
     15 C         140.8695  136.2021  155.4519 C.ar    1  UNL1        0.0325
     16 C         141.1083  137.0201  156.6863 C.ar    1  UNL1        0.1536
     17 F         139.9483  137.6182  157.4257 F       1  UNL1       -0.2029
     18 C         143.1836  143.8262  162.5545 C.2     1  UNL1        0.0513
     19 O         141.8033  144.4091  162.6237 O.co2   1  UNL1       -0.5491
     20 O         144.3753  144.7309  162.4474 O.co2   1  UNL1       -0.5491
     21 C         144.0386  142.4871  165.0993 C.3     1  UNL1        0.0033
     22 C         143.1560  142.3094  166.2990 C.3     1  UNL1        0.0339
     23 C         141.6690  142.4539  166.1642 C.3     1  UNL1        0.1350
     24 O         141.0951  143.5786  165.3546 O.3     1  UNL1       -0.3800
     25 H         141.8162  144.1153  164.9899 H       1  UNL1        0.2108
     26 C         139.8623  139.0720  163.8087 C.ar    1  UNL1        0.1388
     27 C         138.9493  138.0917  164.4836 C.ar    1  UNL1        0.0384
     28 C         138.6385  138.2388  165.9436 C.ar    1  UNL1        0.0222
     29 C         139.2407  139.3660  166.7288 C.ar    1  UNL1        0.0814
     30 N         138.9299  139.5131  168.1889 N.ar    1  UNL1       -0.2415
     31 C         139.5321  140.6403  168.9741 C.ar    1  UNL1        0.1281
     32 C         140.4452  141.6207  168.2992 C.ar    1  UNL1        0.1575
     33 F         141.0474  142.7479  169.0844 F       1  UNL1       -0.2028
     34 C         140.7560  141.4736  166.8391 C.ar    1  UNL1        0.0348
     35 C         140.1537  140.3463  166.0539 C.ar    1  UNL1        0.0212
     36 C         140.4645  140.1992  164.5939 C.ar    1  UNL1        0.0382
     37 C         139.2753  138.1059  161.4695 C.3     1  UNL1        0.2525
     38 O         140.1732  138.9249  162.3486 O.3     1  UNL1       -0.4714
@<TRIPOS>UNITY_ATOM_ATTR
19 1
charge -1
@<TRIPOS>BOND
     1    37    38    1
     2    38    26    1
     3    26    27   ar
     4    27    28   ar
     5    28    29   ar
     6    29    30   ar
     7    30    31   ar
     8    31    32   ar
     9    32    33    1
    10    32    34   ar
    11    34    23    1
    12    23    24    1
    13    23    22    1
    14    22    21    1
    15     1    21    1
    16     1     2    1
    17     2     3    1
    18     3     4    1
    19     4     7    1
    20     7     8    1
    21     8     9    1
    22     9    11    1
    23    11    12   ar
    24    12    13   ar
    25    13    14   ar
    26    14    15   ar
    27    15    16   ar
    28    16    17    1
    29     9    10    1
    30     4     5    1
    31     5     6    1
    32     6    18    1
    33    18    19   ar
    34    18    20   ar
    35    34    35   ar
    36    35    36   ar
    37    36    26   ar
    38    35    29   ar
    39     6     1    1
    40    10     7    1
    41    16    11   ar
    42    24    25    1
@<TRIPOS>MOLECULE
*****
 38 42 0 0 0
SMALL
GASTEIGER

@<TRIPOS>ATOM
      1 C         140.7596  143.8287  163.7143 C.3     1  UNL1        0.0080
      2 C         142.2324  144.1059  163.7777 C.3     1  UNL1        0.0177
      3 C         143.1037  143.8053  162.5943 C.3     1  UNL1        0.0721
      4 N         142.5023  143.2275  161.3476 N.3     1  UNL1       -0.2736
      5 C         141.0295  142.9503  161.2842 C.3     1  UNL1        0.0776
      6 C         140.1581  143.2509  162.4676 C.3     1  UNL1        0.0525
      7 C         143.3736  142.9269  160.1642 C.3     1  UNL1        0.0583
      8 C         144.6265  142.1319  159.9442 C.3     1  UNL1        0.0220
      9 C         144.6060  142.5018  158.4906 C.3     1  UNL1        0.0452
     10 C         143.3532  143.2968  158.7106 C.3     1  UNL1        0.0220
     11 C         145.4773  142.2012  157.3073 C.ar    1  UNL1        0.0860
     12 N         144.9325  141.4072  156.1572 N.ar    1  UNL1       -0.2459
     13 C         145.8039  141.1066  154.9737 C.ar    1  UNL1        0.0986
     14 C         147.2200  141.6000  154.9405 C.ar    1  UNL1        0.0230
     15 C         147.7648  142.3940  156.0906 C.ar    1  UNL1        0.0325
     16 C         146.8935  142.6946  157.2740 C.ar    1  UNL1        0.1536
     17 F         147.4383  143.4886  158.4240 F       1  UNL1       -0.2029
     18 C         138.6854  142.9737  162.4041 C.2     1  UNL1        0.0513
     19 O         138.1754  141.5780  162.6090 O.co2   1  UNL1       -0.5491
     20 O         137.7225  144.0921  162.1358 O.co2   1  UNL1       -0.5491
     21 C         139.8882  144.1293  164.8977 C.3     1  UNL1        0.0033
     22 C         140.0397  143.3356  166.1614 C.3     1  UNL1        0.0339
     23 C         139.8430  141.8486  166.1414 C.3     1  UNL1        0.1350
     24 O         138.6516  141.2590  165.4464 O.3     1  UNL1       -0.3800
     25 H         138.1139  141.9712  165.0661 H       1  UNL1        0.2108
     26 C         143.0147  139.7768  163.7128 C.ar    1  UNL1        0.1388
     27 C         144.0094  138.8796  164.3877 C.ar    1  UNL1        0.0384
     28 C         143.9469  138.6729  165.8721 C.ar    1  UNL1        0.0222
     29 C         142.8897  139.3635  166.6816 C.ar    1  UNL1        0.0814
     30 N         142.8271  139.1568  168.1660 N.ar    1  UNL1       -0.2415
     31 C         141.7699  139.8474  168.9755 C.ar    1  UNL1        0.1281
     32 C         140.7752  140.7447  168.3006 C.ar    1  UNL1        0.1575
     33 F         139.7180  141.4353  169.1101 F       1  UNL1       -0.2028
     34 C         140.8377  140.9514  166.8162 C.ar    1  UNL1        0.0348
     35 C         141.8950  140.2607  166.0067 C.ar    1  UNL1        0.0212
     36 C         141.9575  140.4674  164.5223 C.ar    1  UNL1        0.0382
     37 C         142.0869  139.2991  161.3336 C.3     1  UNL1        0.2525
     38 O         143.0772  139.9835  162.2285 O.3     1  UNL1       -0.4714
@<TRIPOS>UNITY_ATOM_ATTR
19 1
charge -1
@<TRIPOS>BOND
     1    37    38    1
     2    38    26    1
     3    26    27   ar
     4    27    28   ar
     5    28    29   ar
     6    29    30   ar
     7    30    31   ar
     8    31    32   ar
     9    32    33    1
    10    32    34   ar
    11    34    23    1
    12    23    24    1
    13    23    22    1
    14    22    21    1
    15     1    21    1
    16     1     2    1
    17     2     3    1
    18     3     4    1
    19     4     7    1
    20     7     8    1
    21     8     9    1
    22     9    11    1
    23    11    12   ar
    24    12    13   ar
    25    13    14   ar
    26    14    15   ar
    27    15    16   ar
    28    16    17    1
    29     9    10    1
    30     4     5    1
    31     5     6    1
    32     6    18    1
    33    18    19   ar
    34    18    20   ar
    35    34    35   ar
    36    35    36   ar
    37    36    26   ar
    38    35    29   ar
    39     6     1    1
    40    10     7    1
    41    16    11   ar
    42    24    25    1
@<TRIPOS>MOLECULE
*****
 38 42 0 0 0
SMALL
GASTEIGER

@<TRIPOS>ATOM
      1 C         140.9763  143.5208  163.5117 C.3     1  UNL1        0.0080
      2 C         142.1162  142.5471  163.5637 C.3     1  UNL1        0.0177
      3 C         142.9455  142.2971  162.3391 C.3     1  UNL1        0.0721
      4 N         142.6350  143.0208  161.0624 N.3     1  UNL1       -0.2736
      5 C         141.4952  143.9945  161.0104 C.3     1  UNL1        0.0776
      6 C         140.6658  144.2445  162.2350 C.3     1  UNL1        0.0525
      7 C         143.4644  142.7708  159.8379 C.3     1  UNL1        0.0583
      8 C         144.6189  141.8733  159.5037 C.3     1  UNL1        0.0220
      9 C         144.6373  142.4172  158.1059 C.3     1  UNL1        0.0452
     10 C         143.4828  143.3147  158.4400 C.3     1  UNL1        0.0220
     11 C         145.4666  142.1672  156.8813 C.ar    1  UNL1        0.0860
     12 N         144.8572  141.4940  155.6875 N.ar    1  UNL1       -0.2459
     13 C         145.6866  141.2440  154.4628 C.ar    1  UNL1        0.0986
     14 C         147.1253  141.6672  154.4321 C.ar    1  UNL1        0.0230
     15 C         147.7347  142.3404  155.6260 C.ar    1  UNL1        0.0325
     16 C         146.9054  142.5904  156.8506 C.ar    1  UNL1        0.1536
     17 F         147.5148  143.2636  158.0445 F       1  UNL1       -0.2029
     18 C         139.5260  145.2182  162.1829 C.2     1  UNL1        0.0513
     19 O         139.7909  146.6689  161.9087 O.co2   1  UNL1       -0.5491
     20 O         138.1214  144.7411  162.4050 O.co2   1  UNL1       -0.5491
     21 C         140.1470  143.7708  164.7363 C.3     1  UNL1        0.0033
     22 C         139.4649  142.6270  165.4264 C.3     1  UNL1        0.0339
     23 C         138.3865  141.8601  164.7198 C.3     1  UNL1        0.1350
     24 O         137.0978  142.5377  164.3591 O.3     1  UNL1       -0.3800
     25 H         137.1255  143.4621  164.6518 H       1  UNL1        0.2108
     26 C         139.0750  140.6483  160.4411 C.ar    1  UNL1        0.1388
     27 C         139.2854  139.2040  160.0953 C.ar    1  UNL1        0.0384
     28 C         139.2663  138.1636  161.1757 C.ar    1  UNL1        0.0222
     29 C         139.0368  138.5675  162.6019 C.ar    1  UNL1        0.0814
     30 N         139.0177  137.5271  163.6823 N.ar    1  UNL1       -0.2415
     31 C         138.7882  137.9310  165.1085 C.ar    1  UNL1        0.1281
     32 C         138.5778  139.3754  165.4544 C.ar    1  UNL1        0.1575
     33 F         138.3483  139.7794  166.8806 F       1  UNL1       -0.2028
     34 C         138.5969  140.4158  164.3740 C.ar    1  UNL1        0.0348
     35 C         138.8264  140.0118  162.9477 C.ar    1  UNL1        0.0212
     36 C         138.8455  141.0522  161.8673 C.ar    1  UNL1        0.0382
     37 C         140.1147  141.6126  158.2642 C.3     1  UNL1        0.2525
     38 O         139.0941  141.6887  159.3607 O.3     1  UNL1       -0.4714
@<TRIPOS>UNITY_ATOM_ATTR
19 1
charge -1
@<TRIPOS>BOND
     1    37    38    1
     2    38    26    1
     3    26    27   ar
     4    27    28   ar
     5    28    29   ar
     6    29    30   ar
     7    30    31   ar
     8    31    32   ar
     9    32    33    1
    10    32    34   ar
    11    34    23    1
    12    23    24    1
    13    23    22    1
    14    22    21    1
    15     1    21    1
    16     1     2    1
    17     2     3    1
    18     3     4    1
    19     4     7    1
    20     7     8    1
    21     8     9    1
    22     9    11    1
    23    11    12   ar
    24    12    13   ar
    25    13    14   ar
    26    14    15   ar
    27    15    16   ar
    28    16    17    1
    29     9    10    1
    30     4     5    1
    31     5     6    1
    32     6    18    1
    33    18    19   ar
    34    18    20   ar
    35    34    35   ar
    36    35    36   ar
    37    36    26   ar
    38    35    29   ar
    39     6     1    1
    40    10     7    1
    41    16    11   ar
    42    24    25    1
@<TRIPOS>MOLECULE
*****
 38 42 0 0 0
SMALL
GASTEIGER

@<TRIPOS>ATOM
      1 C         139.6719  142.8603  160.3387 C.3     1  UNL1        0.0080
      2 C         139.4503  141.4791  160.8803 C.3     1  UNL1        0.0177
      3 C         139.6095  141.2146  162.3481 C.3     1  UNL1        0.0721
      4 N         139.9903  142.3312  163.2745 N.3     1  UNL1       -0.2736
      5 C         140.2118  143.7124  162.7330 C.3     1  UNL1        0.0776
      6 C         140.0526  143.9770  161.2650 C.3     1  UNL1        0.0525
      7 C         140.1494  142.0667  164.7423 C.3     1  UNL1        0.0583
      8 C         141.1327  142.4852  165.7950 C.3     1  UNL1        0.0220
      9 C         140.3746  141.6926  166.8183 C.3     1  UNL1        0.0452
     10 C         139.3913  141.2742  165.7657 C.3     1  UNL1        0.0220
     11 C         140.5338  141.4281  168.2862 C.ar    1  UNL1        0.0860
     12 N         140.8454  140.0426  168.7691 N.ar    1  UNL1       -0.2459
     13 C         141.0046  139.7781  170.2370 C.ar    1  UNL1        0.0986
     14 C         140.8522  140.8990  171.2220 C.ar    1  UNL1        0.0230
     15 C         140.5406  142.2846  170.7390 C.ar    1  UNL1        0.0325
     16 C         140.3814  142.5491  169.2711 C.ar    1  UNL1        0.1536
     17 F         140.0698  143.9346  168.7882 F       1  UNL1       -0.2029
     18 C         140.2742  145.3581  160.7235 C.2     1  UNL1        0.0513
     19 O         141.4631  145.6408  159.8537 O.co2   1  UNL1       -0.5491
     20 O         139.3069  146.4566  161.0519 O.co2   1  UNL1       -0.5491
     21 C         139.5127  143.1248  158.8708 C.3     1  UNL1        0.0033
     22 C         140.4896  142.5415  157.8934 C.3     1  UNL1        0.0339
     23 C         141.9591  142.5715  158.1932 C.3     1  UNL1        0.1350
     24 O         142.7906  143.7396  157.7529 O.3     1  UNL1       -0.3800
     25 H         142.2281  144.3815  157.2920 H       1  UNL1        0.2108
     26 C         144.1732  143.3443  162.0338 C.ar    1  UNL1        0.1388
     27 C         144.8110  142.2061  162.7739 C.ar    1  UNL1        0.0384
     28 C         144.7108  140.8104  162.2337 C.ar    1  UNL1        0.0222
     29 C         143.9728  140.5527  160.9535 C.ar    1  UNL1        0.0814
     30 N         143.8726  139.1569  160.4134 N.ar    1  UNL1       -0.2415
     31 C         143.1346  138.8993  159.1332 C.ar    1  UNL1        0.1281
     32 C         142.4967  140.0375  158.3931 C.ar    1  UNL1        0.1575
     33 F         141.7587  139.7799  157.1129 F       1  UNL1       -0.2028
     34 C         142.5969  141.4333  158.9332 C.ar    1  UNL1        0.0348
     35 C         143.3350  141.6909  160.2135 C.ar    1  UNL1        0.0212
     36 C         143.4351  143.0867  160.7536 C.ar    1  UNL1        0.0382
     37 C         143.5871  145.0981  163.8588 C.3     1  UNL1        0.2525
     38 O         144.2733  144.7401  162.5740 O.3     1  UNL1       -0.4714
@<TRIPOS>UNITY_ATOM_ATTR
19 1
charge -1
@<TRIPOS>BOND
     1    37    38    1
     2    38    26    1
     3    26    27   ar
     4    27    28   ar
     5    28    29   ar
     6    29    30   ar
     7    30    31   ar
     8    31    32   ar
     9    32    33    1
    10    32    34   ar
    11    34    23    1
    12    23    24    1
    13    23    22    1
    14    22    21    1
    15     1    21    1
    16     1     2    1
    17     2     3    1
    18     3     4    1
    19     4     7    1
    20     7     8    1
    21     8     9    1
    22     9    11    1
    23    11    12   ar
    24    12    13   ar
    25    13    14   ar
    26    14    15   ar
    27    15    16   ar
    28    16    17    1
    29     9    10    1
    30     4     5    1
    31     5     6    1
    32     6    18    1
    33    18    19   ar
    34    18    20   ar
    35    34    35   ar
    36    35    36   ar
    37    36    26   ar
    38    35    29   ar
    39     6     1    1
    40    10     7    1
    41    16    11   ar
    42    24    25    1
@<TRIPOS>MOLECULE
*****
 38 42 0 0 0
SMALL
GASTEIGER

@<TRIPOS>ATOM
      1 C         143.1532  142.9981  162.1310 C.3     1  UNL1        0.0080
      2 C         142.2440  143.1303  160.9452 C.3     1  UNL1        0.0177
      3 C         142.1437  142.0136  159.9488 C.3     1  UNL1        0.0721
      4 N         142.9525  140.7646  160.1381 N.3     1  UNL1       -0.2736
      5 C         143.8616  140.6323  161.3238 C.3     1  UNL1        0.0776
      6 C         143.9620  141.7491  162.3203 C.3     1  UNL1        0.0525
      7 C         142.8522  139.6479  159.1417 C.3     1  UNL1        0.0583
      8 C         142.8796  139.5565  157.6447 C.3     1  UNL1        0.0220
      9 C         142.7104  138.0686  157.7325 C.3     1  UNL1        0.0452
     10 C         142.6830  138.1601  159.2294 C.3     1  UNL1        0.0220
     11 C         142.6100  136.9519  156.7361 C.ar    1  UNL1        0.0860
     12 N         143.8556  136.3067  156.2048 N.ar    1  UNL1       -0.2459
     13 C         143.7553  135.1899  155.2083 C.ar    1  UNL1        0.0986
     14 C         142.4095  134.7184  154.7432 C.ar    1  UNL1        0.0230
     15 C         141.1639  135.3637  155.2745 C.ar    1  UNL1        0.0325
     16 C         141.2642  136.4804  156.2709 C.ar    1  UNL1        0.1536
     17 F         140.0186  137.1256  156.8022 F       1  UNL1       -0.2029
     18 C         144.8711  141.6168  163.5060 C.2     1  UNL1        0.0513
     19 O         146.3581  141.6876  163.3225 O.co2   1  UNL1       -0.5491
     20 O         144.2932  141.4137  164.8752 O.co2   1  UNL1       -0.5491
     21 C         143.2535  144.1148  163.1274 C.3     1  UNL1        0.0033
     22 C         142.0994  144.4135  164.0377 C.3     1  UNL1        0.0339
     23 C         141.2755  143.2917  164.5971 C.3     1  UNL1        0.1350
     24 O         141.7851  142.4951  165.7614 O.3     1  UNL1       -0.3800
     25 H         142.6544  142.8327  166.0285 H       1  UNL1        0.2108
     26 C         140.5373  139.2173  162.8352 C.ar    1  UNL1        0.1388
     27 C         139.2038  138.8922  162.2303 C.ar    1  UNL1        0.0384
     28 C         138.1163  139.9252  162.2126 C.ar    1  UNL1        0.0222
     29 C         138.3624  141.2833  162.7999 C.ar    1  UNL1        0.0814
     30 N         137.2749  142.3163  162.7822 N.ar    1  UNL1       -0.2415
     31 C         137.5209  143.6745  163.3695 C.ar    1  UNL1        0.1281
     32 C         138.8545  143.9996  163.9745 C.ar    1  UNL1        0.1575
     33 F         139.1005  145.3577  164.5618 F       1  UNL1       -0.2028
     34 C         139.9420  142.9666  163.9922 C.ar    1  UNL1        0.0348
     35 C         139.6959  141.6085  163.4048 C.ar    1  UNL1        0.0212
     36 C         140.7833  140.5755  163.4225 C.ar    1  UNL1        0.0382
     37 C         142.7383  138.2846  163.8528 C.3     1  UNL1        0.2525
     38 O         141.6248  138.1843  162.8529 O.3     1  UNL1       -0.4714
@<TRIPOS>UNITY_ATOM_ATTR
19 1
charge -1
@<TRIPOS>BOND
     1    37    38    1
     2    38    26    1
     3    26    27   ar
     4    27    28   ar
     5    28    29   ar
     6    29    30   ar
     7    30    31   ar
     8    31    32   ar
     9    32    33    1
    10    32    34   ar
    11    34    23    1
    12    23    24    1
    13    23    22    1
    14    22    21    1
    15     1    21    1
    16     1     2    1
    17     2     3    1
    18     3     4    1
    19     4     7    1
    20     7     8    1
    21     8     9    1
    22     9    11    1
    23    11    12   ar
    24    12    13   ar
    25    13    14   ar
    26    14    15   ar
    27    15    16   ar
    28    16    17    1
    29     9    10    1
    30     4     5    1
    31     5     6    1
    32     6    18    1
    33    18    19   ar
    34    18    20   ar
    35    34    35   ar
    36    35    36   ar
    37    36    26   ar
    38    35    29   ar
    39     6     1    1
    40    10     7    1
    41    16    11   ar
    42    24    25    1
@<TRIPOS>MOLECULE
*****
 38 42 0 0 0
SMALL
GASTEIGER

@<TRIPOS>ATOM
      1 C         138.3693  141.4203  163.1517 C.3     1  UNL1        0.0080
      2 C         138.2435  141.9427  161.7512 C.3     1  UNL1        0.0177
      3 C         138.8700  141.1942  160.6124 C.3     1  UNL1        0.0721
      4 N         139.6225  139.9232  160.8740 N.3     1  UNL1       -0.2736
      5 C         139.7484  139.4008  162.2744 C.3     1  UNL1        0.0776
      6 C         139.1218  140.1494  163.4133 C.3     1  UNL1        0.0525
      7 C         140.2490  139.1746  159.7351 C.3     1  UNL1        0.0583
      8 C         139.8143  138.7893  158.3522 C.3     1  UNL1        0.0220
      9 C         141.1352  138.1159  158.1244 C.3     1  UNL1        0.0452
     10 C         141.5700  138.5013  159.5073 C.3     1  UNL1        0.0220
     11 C         141.7617  137.3673  156.9856 C.ar    1  UNL1        0.0860
     12 N         143.2550  137.3149  156.8539 N.ar    1  UNL1       -0.2459
     13 C         143.8816  136.5663  155.7150 C.ar    1  UNL1        0.0986
     14 C         143.0149  135.8702  154.7079 C.ar    1  UNL1        0.0230
     15 C         141.5216  135.9227  154.8396 C.ar    1  UNL1        0.0325
     16 C         140.8950  136.6712  155.9785 C.ar    1  UNL1        0.1536
     17 F         139.4018  136.7237  156.1102 F       1  UNL1       -0.2029
     18 C         139.2477  139.6270  164.8137 C.2     1  UNL1        0.0513
     19 O         140.6001  139.5106  165.4520 O.co2   1  UNL1       -0.5491
     20 O         138.0212  139.2209  165.5759 O.co2   1  UNL1       -0.5491
     21 C         137.7428  142.1689  164.2906 C.3     1  UNL1        0.0033
     22 C         137.7088  143.6684  164.2740 C.3     1  UNL1        0.0339
     23 C         138.8030  144.4508  164.9379 C.3     1  UNL1        0.1350
     24 O         138.4627  145.5212  165.9320 O.3     1  UNL1       -0.3800
     25 H         137.4992  145.5779  166.0289 H       1  UNL1        0.2108
     26 C         141.2852  141.9186  167.7085 C.ar    1  UNL1        0.1388
     27 C         142.7198  141.6305  167.3781 C.ar    1  UNL1        0.0384
     28 C         143.3269  142.1865  166.1242 C.ar    1  UNL1        0.0222
     29 C         142.4995  143.0306  165.2007 C.ar    1  UNL1        0.0814
     30 N         143.1066  143.5866  163.9468 N.ar    1  UNL1       -0.2415
     31 C         142.2793  144.4307  163.0233 C.ar    1  UNL1        0.1281
     32 C         140.8447  144.7188  163.3536 C.ar    1  UNL1        0.1575
     33 F         140.0173  145.5628  162.4301 F       1  UNL1       -0.2028
     34 C         140.2376  144.1628  164.6075 C.ar    1  UNL1        0.0348
     35 C         141.0650  143.3186  165.5311 C.ar    1  UNL1        0.0212
     36 C         140.4579  142.7626  166.7849 C.ar    1  UNL1        0.0382
     37 C         139.6426  140.2806  168.8784 C.3     1  UNL1        0.2525
     38 O         140.6781  141.3626  168.9624 O.3     1  UNL1       -0.4714
@<TRIPOS>UNITY_ATOM_ATTR
19 1
charge -1
@<TRIPOS>BOND
     1    37    38    1
     2    38    26    1
     3    26    27   ar
     4    27    28   ar
     5    28    29   ar
     6    29    30   ar
     7    30    31   ar
     8    31    32   ar
     9    32    33    1
    10    32    34   ar
    11    34    23    1
    12    23    24    1
    13    23    22    1
    14    22    21    1
    15     1    21    1
    16     1     2    1
    17     2     3    1
    18     3     4    1
    19     4     7    1
    20     7     8    1
    21     8     9    1
    22     9    11    1
    23    11    12   ar
    24    12    13   ar
    25    13    14   ar
    26    14    15   ar
    27    15    16   ar
    28    16    17    1
    29     9    10    1
    30     4     5    1
    31     5     6    1
    32     6    18    1
    33    18    19   ar
    34    18    20   ar
    35    34    35   ar
    36    35    36   ar
    37    36    26   ar
    38    35    29   ar
    39     6     1    1
    40    10     7    1
    41    16    11   ar
    42    24    25    1
@<TRIPOS>MOLECULE
*****
 38 42 0 0 0
SMALL
GASTEIGER

@<TRIPOS>ATOM
      1 C         142.8708  142.6417  164.1770 C.3     1  UNL1        0.0080
      2 C         141.5691  143.3864  164.1436 C.3     1  UNL1        0.0177
      3 C         140.6675  143.2677  162.9507 C.3     1  UNL1        0.0721
      4 N         141.0676  142.4043  161.7912 N.3     1  UNL1       -0.2736
      5 C         142.3692  141.6596  161.8245 C.3     1  UNL1        0.0776
      6 C         143.2708  141.7783  163.0175 C.3     1  UNL1        0.0525
      7 C         140.1660  142.2856  160.5983 C.3     1  UNL1        0.0583
      8 C         138.8316  142.8545  160.2165 C.3     1  UNL1        0.0220
      9 C         138.8909  142.1177  158.9112 C.3     1  UNL1        0.0452
     10 C         140.2252  141.5488  159.2930 C.3     1  UNL1        0.0220
     11 C         137.9893  141.9989  157.7183 C.ar    1  UNL1        0.0860
     12 N         137.0806  140.8136  157.5800 N.ar    1  UNL1       -0.2459
     13 C         136.1790  140.6948  156.3871 C.ar    1  UNL1        0.0986
     14 C         136.1861  141.7615  155.3325 C.ar    1  UNL1        0.0230
     15 C         137.0948  142.9469  155.4708 C.ar    1  UNL1        0.0325
     16 C         137.9964  143.0656  156.6637 C.ar    1  UNL1        0.1536
     17 F         138.9050  144.2510  156.8020 F       1  UNL1       -0.2029
     18 C         144.5725  141.0335  163.0508 C.2     1  UNL1        0.0513
     19 O         144.5936  139.5758  163.4038 O.co2   1  UNL1       -0.5491
     20 O         145.8529  141.7465  162.7313 O.co2   1  UNL1       -0.5491
     21 C         143.7724  142.7604  165.3699 C.3     1  UNL1        0.0033
     22 C         143.3552  142.1751  166.6864 C.3     1  UNL1        0.0339
     23 C         142.9276  140.7396  166.7672 C.3     1  UNL1        0.1350
     24 O         143.8103  139.6616  166.2115 O.3     1  UNL1       -0.3800
     25 H         144.6124  140.0604  165.8392 H       1  UNL1        0.2108
     26 C         139.4453  139.4967  164.2023 C.ar    1  UNL1        0.1388
     27 C         138.1349  139.1392  164.8388 C.ar    1  UNL1        0.0384
     28 C         137.9853  139.1960  166.3302 C.ar    1  UNL1        0.0222
     29 C         139.1461  139.6102  167.1852 C.ar    1  UNL1        0.0814
     30 N         138.9965  139.6670  168.6766 N.ar    1  UNL1       -0.2415
     31 C         140.1572  140.0812  169.5316 C.ar    1  UNL1        0.1281
     32 C         141.4677  140.4388  168.8951 C.ar    1  UNL1        0.1575
     33 F         142.6284  140.8530  169.7501 F       1  UNL1       -0.2028
     34 C         141.6172  140.3820  167.4037 C.ar    1  UNL1        0.0348
     35 C         140.4564  139.9677  166.5487 C.ar    1  UNL1        0.0212
     36 C         140.6060  139.9110  165.0573 C.ar    1  UNL1        0.0382
     37 C         140.4404  138.3725  162.0820 C.3     1  UNL1        0.2525
     38 O         139.5948  139.4400  162.7109 O.3     1  UNL1       -0.4714
@<TRIPOS>UNITY_ATOM_ATTR
19 1
charge -1
@<TRIPOS>BOND
     1    37    38    1
     2    38    26    1
     3    26    27   ar
     4    27    28   ar
     5    28    29   ar
     6    29    30   ar
     7    30    31   ar
     8    31    32   ar
     9    32    33    1
    10    32    34   ar
    11    34    23    1
    12    23    24    1
    13    23    22    1
    14    22    21    1
    15     1    21    1
    16     1     2    1
    17     2     3    1
    18     3     4    1
    19     4     7    1
    20     7     8    1
    21     8     9    1
    22     9    11    1
    23    11    12   ar
    24    12    13   ar
    25    13    14   ar
    26    14    15   ar
    27    15    16   ar
    28    16    17    1
    29     9    10    1
    30     4     5    1
    31     5     6    1
    32     6    18    1
    33    18    19   ar
    34    18    20   ar
    35    34    35   ar
    36    35    36   ar
    37    36    26   ar
    38    35    29   ar
    39     6     1    1
    40    10     7    1
    41    16    11   ar
    42    24    25    1
@<TRIPOS>MOLECULE
*****
 38 42 0 0 0
SMALL
GASTEIGER

@<TRIPOS>ATOM
      1 C         139.4067  142.7388  161.8551 C.3     1  UNL1        0.0080
      2 C         139.6968  143.8450  160.8844 C.3     1  UNL1        0.0177
      3 C         140.8149  143.7005  159.8949 C.3     1  UNL1        0.0721
      4 N         141.6428  142.4498  159.8761 N.3     1  UNL1       -0.2736
      5 C         141.3527  141.3436  160.8468 C.3     1  UNL1        0.0776
      6 C         140.2347  141.4881  161.8363 C.3     1  UNL1        0.0525
      7 C         142.7609  142.3053  158.8867 C.3     1  UNL1        0.0583
      8 C         143.6707  141.1879  158.4700 C.3     1  UNL1        0.0220
      9 C         144.3421  142.1009  157.4873 C.3     1  UNL1        0.0452
     10 C         143.4323  143.2183  157.9040 C.3     1  UNL1        0.0220
     11 C         145.4602  141.9564  156.4978 C.ar    1  UNL1        0.0860
     12 N         145.2090  141.2990  155.1732 N.ar    1  UNL1       -0.2459
     13 C         146.3271  141.1544  154.1837 C.ar    1  UNL1        0.0986
     14 C         147.6963  141.6674  154.5188 C.ar    1  UNL1        0.0230
     15 C         147.9473  142.3249  155.8435 C.ar    1  UNL1        0.0325
     16 C         146.8293  142.4693  156.8330 C.ar    1  UNL1        0.1536
     17 F         147.0804  143.1268  158.1576 F       1  UNL1       -0.2029
     18 C         139.9446  140.3819  162.8069 C.2     1  UNL1        0.0513
     19 O         138.6906  139.5708  162.6668 O.co2   1  UNL1       -0.5491
     20 O         140.9084  140.0869  163.9177 O.co2   1  UNL1       -0.5491
     21 C         138.2887  142.8832  162.8445 C.3     1  UNL1        0.0033
     22 C         138.0488  144.2020  163.5179 C.3     1  UNL1        0.0339
     23 C         138.9647  144.6625  164.6130 C.3     1  UNL1        0.1350
     24 O         138.4144  145.4329  165.7765 O.3     1  UNL1       -0.3800
     25 H         137.4574  145.5460  165.6658 H       1  UNL1        0.2108
     26 C         140.6970  141.4004  167.1835 C.ar    1  UNL1        0.1388
     27 C         142.1631  141.0905  167.1151 C.ar    1  UNL1        0.0384
     28 C         143.0516  141.8679  166.1899 C.ar    1  UNL1        0.0222
     29 C         142.4742  142.9553  165.3331 C.ar    1  UNL1        0.0814
     30 N         143.3628  143.7327  164.4079 N.ar    1  UNL1       -0.2415
     31 C         142.7854  144.8201  163.5511 C.ar    1  UNL1        0.1281
     32 C         141.3193  145.1300  163.6194 C.ar    1  UNL1        0.1575
     33 F         140.7419  146.2174  162.7626 F       1  UNL1       -0.2028
     34 C         140.4307  144.3526  164.5446 C.ar    1  UNL1        0.0348
     35 C         141.0082  143.2652  165.4015 C.ar    1  UNL1        0.0212
     36 C         140.1196  142.4877  166.3267 C.ar    1  UNL1        0.0382
     37 C         140.3613  140.0644  169.3863 C.3     1  UNL1        0.2525
     38 O         139.8085  140.6229  168.1087 O.3     1  UNL1       -0.4714
@<TRIPOS>UNITY_ATOM_ATTR
19 1
charge -1
@<TRIPOS>BOND
     1    37    38    1
     2    38    26    1
     3    26    27   ar
     4    27    28   ar
     5    28    29   ar
     6    29    30   ar
     7    30    31   ar
     8    31    32   ar
     9    32    33    1
    10    32    34   ar
    11    34    23    1
    12    23    24    1
    13    23    22    1
    14    22    21    1
    15     1    21    1
    16     1     2    1
    17     2     3    1
    18     3     4    1
    19     4     7    1
    20     7     8    1
    21     8     9    1
    22     9    11    1
    23    11    12   ar
    24    12    13   ar
    25    13    14   ar
    26    14    15   ar
    27    15    16   ar
    28    16    17    1
    29     9    10    1
    30     4     5    1
    31     5     6    1
    32     6    18    1
    33    18    19   ar
    34    18    20   ar
    35    34    35   ar
    36    35    36   ar
    37    36    26   ar
    38    35    29   ar
    39     6     1    1
    40    10     7    1
    41    16    11   ar
    42    24    25    1
@<TRIPOS>MOLECULE
*****
 38 42 0 0 0
SMALL
GASTEIGER

@<TRIPOS>ATOM
      1 C         142.9019  141.4917  161.2946 C.3     1  UNL1        0.0080
      2 C         142.8409  142.3467  160.0636 C.3     1  UNL1        0.0177
      3 C         141.6494  142.2704  159.1556 C.3     1  UNL1        0.0721
      4 N         140.5188  141.3391  159.4786 N.3     1  UNL1       -0.2736
      5 C         140.5797  140.4840  160.7095 C.3     1  UNL1        0.0776
      6 C         141.7712  140.5603  161.6175 C.3     1  UNL1        0.0525
      7 C         139.3273  141.2627  158.5706 C.3     1  UNL1        0.0583
      8 C         138.7850  140.2407  157.6159 C.3     1  UNL1        0.0220
      9 C         137.6422  141.1548  157.2864 C.3     1  UNL1        0.0452
     10 C         138.1845  142.1768  158.2411 C.3     1  UNL1        0.0220
     11 C         136.4507  141.0785  156.3784 C.ar    1  UNL1        0.0860
     12 N         135.2386  140.2996  156.7956 N.ar    1  UNL1       -0.2459
     13 C         134.0470  140.2232  155.8876 C.ar    1  UNL1        0.0986
     14 C         134.0676  140.9258  154.5625 C.ar    1  UNL1        0.0230
     15 C         135.2798  141.7047  154.1454 C.ar    1  UNL1        0.0325
     16 C         136.4713  141.7810  155.0533 C.ar    1  UNL1        0.1536
     17 F         137.6834  142.5599  154.6362 F       1  UNL1       -0.2029
     18 C         141.8321  139.7053  162.8484 C.2     1  UNL1        0.0513
     19 O         142.6154  138.4262  162.8350 O.co2   1  UNL1       -0.5491
     20 O         141.1097  140.1294  164.0927 O.co2   1  UNL1       -0.5491
     21 C         144.0934  141.5680  162.2025 C.3     1  UNL1        0.0033
     22 C         144.7223  142.8958  162.5046 C.3     1  UNL1        0.0339
     23 C         143.9030  143.9910  163.1207 C.3     1  UNL1        0.1350
     24 O         144.1943  145.4240  162.7869 O.3     1  UNL1       -0.3800
     25 H         144.9364  145.4664  162.1636 H       1  UNL1        0.2108
     26 C         139.6609  145.1004  162.1090 C.ar    1  UNL1        0.1388
     27 C         138.5504  144.7624  163.0589 C.ar    1  UNL1        0.0384
     28 C         138.8539  144.0547  164.3462 C.ar    1  UNL1        0.0222
     29 C         140.2679  143.6849  164.6834 C.ar    1  UNL1        0.0814
     30 N         140.5713  142.9771  165.9707 N.ar    1  UNL1       -0.2415
     31 C         141.9853  142.6073  166.3079 C.ar    1  UNL1        0.1281
     32 C         143.0960  142.9453  165.3579 C.ar    1  UNL1        0.1575
     33 F         144.5100  142.5755  165.6952 F       1  UNL1       -0.2028
     34 C         142.7925  143.6530  164.0707 C.ar    1  UNL1        0.0348
     35 C         141.3784  144.0228  163.7335 C.ar    1  UNL1        0.0212
     36 C         141.0749  144.7306  162.4462 C.ar    1  UNL1        0.0382
     37 C         140.2101  145.5634  159.6122 C.3     1  UNL1        0.2525
     38 O         139.3574  145.8081  160.8217 O.3     1  UNL1       -0.4714
@<TRIPOS>UNITY_ATOM_ATTR
19 1
charge -1
@<TRIPOS>BOND
     1    37    38    1
     2    38    26    1
     3    26    27   ar
     4    27    28   ar
     5    28    29   ar
     6    29    30   ar
     7    30    31   ar
     8    31    32   ar
     9    32    33    1
    10    32    34   ar
    11    34    23    1
    12    23    24    1
    13    23    22    1
    14    22    21    1
    15     1    21    1
    16     1     2    1
    17     2     3    1
    18     3     4    1
    19     4     7    1
    20     7     8    1
    21     8     9    1
    22     9    11    1
    23    11    12   ar
    24    12    13   ar
    25    13    14   ar
    26    14    15   ar
    27    15    16   ar
    28    16    17    1
    29     9    10    1
    30     4     5    1
    31     5     6    1
    32     6    18    1
    33    18    19   ar
    34    18    20   ar
    35    34    35   ar
    36    35    36   ar
    37    36    26   ar
    38    35    29   ar
    39     6     1    1
    40    10     7    1
    41    16    11   ar
    42    24    25    1
