@<TRIPOS>MOLECULE
*****
 34 38 0 0 0
SMALL
GASTEIGER

@<TRIPOS>ATOM
      1 C         141.3712  144.3223  160.9034 C.3     1  UNL1        0.0720
      2 C         141.4761  145.3201  162.0185 C.3     1  UNL1        0.0200
      3 C         142.5052  144.8230  162.9900 C.3     1  UNL1        0.0098
      4 C         143.2060  145.1325  164.2796 C.3     1  UNL1        0.0005
      5 C         144.1702  144.0186  164.5620 C.3     1  UNL1        0.0005
      6 C         144.0653  143.0208  163.4470 C.3     1  UNL1        0.0087
      7 C         143.0362  143.5179  162.4755 C.3     1  UNL1        0.0707
      8 C         142.3353  143.2084  161.1859 C.3     1  UNL1        0.0282
      9 C         143.5672  142.2128  161.9609 C.2     1  UNL1        0.2250
     10 O         144.7174  142.1984  160.9982 O.2     1  UNL1       -0.2749
     11 N         142.9480  140.9221  162.4090 N.am    1  UNL1       -0.2750
     12 C         143.4790  139.6171  161.8945 C.3     1  UNL1        0.1000
     13 C         142.8597  138.3265  162.3426 C.3     1  UNL1        0.0670
     14 C         141.7095  138.3409  163.3053 C.ar    1  UNL1        0.0583
     15 N         141.0903  137.0502  163.7534 N.ar    1  UNL1       -0.2484
     16 C         139.9401  137.0647  164.7161 C.ar    1  UNL1        0.1023
     17 C         139.4091  138.3699  165.2307 C.ar    1  UNL1        0.0902
     18 C         140.0283  139.6605  164.7825 C.ar    1  UNL1        0.0040
     19 C         141.1785  139.6460  163.8198 C.ar    1  UNL1        0.0113
     20 C         141.7978  140.9366  163.3717 C.3     1  UNL1        0.1213
     21 C         138.2589  138.3843  166.1934 C.3     1  UNL1        0.4200
     22 F         137.1086  138.3988  167.1561 F       1  UNL1       -0.1658
     23 F         138.4172  139.8666  166.3602 F       1  UNL1       -0.1658
     24 F         138.1006  136.9021  166.0265 F       1  UNL1       -0.1658
     25 O         142.2244  145.8827  158.4875 O.2     1  UNL1       -0.2751
     26 C         140.8883  145.2011  158.5066 C.2     1  UNL1        0.2221
     27 N         140.4617  144.4209  159.7146 N.am    1  UNL1       -0.3060
     28 H         139.5848  143.9736  159.7273 H       1  UNL1        0.1494
     29 C         139.9789  145.2998  157.3179 C.3     1  UNL1        0.0815
     30 C         139.7223  146.6321  156.6784 C.3     1  UNL1        0.0412
     31 C         138.8129  146.7308  155.4896 C.3     1  UNL1        0.1427
     32 O         138.1600  145.4970  154.9403 O.3     1  UNL1       -0.3538
     33 C         138.4167  144.1647  155.5798 C.3     1  UNL1        0.1427
     34 C         139.3261  144.0660  156.7686 C.3     1  UNL1        0.0412
@<TRIPOS>BOND
     1    25    26    2
     2    26    27   am
     3     1    27    1
     4     1     2    1
     5     3     2    1
     6     3     4    1
     7     4     5    1
     8     5     6    1
     9     6     7    1
    10     7     9    1
    11     9    10    2
    12     9    11   am
    13    11    12    1
    14    12    13    1
    15    13    14    1
    16    14    15   ar
    17    15    16   ar
    18    16    17   ar
    19    17    21    1
    20    21    22    1
    21    21    23    1
    22    21    24    1
    23    17    18   ar
    24    18    19   ar
    25    19    20    1
    26     7     8    1
    27    26    29    1
    28    29    30    1
    29    30    31    1
    30    31    32    1
    31    32    33    1
    32    33    34    1
    33     8     1    1
    34    34    29    1
    35     7     3    1
    36    20    11    1
    37    19    14   ar
    38    27    28    1
@<TRIPOS>MOLECULE
*****
 34 38 0 0 0
SMALL
GASTEIGER

@<TRIPOS>ATOM
      1 C         140.5223  141.7023  161.3034 C.3     1  UNL1        0.0720
      2 C         140.4095  143.1977  161.2707 C.3     1  UNL1        0.0200
      3 C         139.3893  143.6079  162.2909 C.3     1  UNL1        0.0098
      4 C         138.6890  144.7857  162.9013 C.3     1  UNL1        0.0005
      5 C         137.7385  144.2717  163.9417 C.3     1  UNL1        0.0005
      6 C         137.8513  142.7763  163.9744 C.3     1  UNL1        0.0087
      7 C         138.8715  142.3661  162.9542 C.3     1  UNL1        0.0707
      8 C         139.5718  141.1883  162.3438 C.3     1  UNL1        0.0282
      9 C         138.3538  141.1242  163.6173 C.2     1  UNL1        0.2250
     10 O         137.4287  140.2070  162.8739 O.2     1  UNL1       -0.2749
     11 N         138.7613  140.7996  165.0240 N.am    1  UNL1       -0.2750
     12 C         138.2437  139.5578  165.6871 C.3     1  UNL1        0.1000
     13 C         138.6512  139.2332  167.0937 C.3     1  UNL1        0.0670
     14 C         139.5763  140.1504  167.8371 C.ar    1  UNL1        0.0583
     15 N         139.9838  139.8258  169.2438 N.ar    1  UNL1       -0.2484
     16 C         140.9090  140.7430  169.9872 C.ar    1  UNL1        0.1023
     17 C         141.4267  141.9849  169.3240 C.ar    1  UNL1        0.0902
     18 C         141.0192  142.3095  167.9174 C.ar    1  UNL1        0.0040
     19 C         140.0940  141.3922  167.1740 C.ar    1  UNL1        0.0113
     20 C         139.6865  141.7168  165.7674 C.3     1  UNL1        0.1213
     21 C         142.3519  142.9021  170.0674 C.3     1  UNL1        0.4200
     22 F         143.2771  143.8194  170.8109 F       1  UNL1       -0.1658
     23 F         143.3942  141.8239  170.1006 F       1  UNL1       -0.1658
     24 F         141.3096  143.9803  170.0343 F       1  UNL1       -0.1658
     25 O         139.6788  140.9458  158.5256 O.2     1  UNL1       -0.2751
     26 C         141.0050  140.4891  159.0572 C.2     1  UNL1        0.2221
     27 N         141.4268  140.8674  160.4461 N.am    1  UNL1       -0.3060
     28 H         142.2972  140.5677  160.7950 H       1  UNL1        0.1494
     29 C         141.9095  139.6542  158.1999 C.3     1  UNL1        0.0815
     30 C         142.8442  140.3148  157.2304 C.3     1  UNL1        0.0412
     31 C         143.7486  139.4799  156.3731 C.3     1  UNL1        0.1427
     32 O         143.7184  137.9844  156.4854 O.3     1  UNL1       -0.3538
     33 C         142.7837  137.3238  157.4549 C.3     1  UNL1        0.1427
     34 C         141.8792  138.1588  158.3122 C.3     1  UNL1        0.0412
@<TRIPOS>BOND
     1    25    26    2
     2    26    27   am
     3     1    27    1
     4     1     2    1
     5     3     2    1
     6     3     4    1
     7     4     5    1
     8     5     6    1
     9     6     7    1
    10     7     9    1
    11     9    10    2
    12     9    11   am
    13    11    12    1
    14    12    13    1
    15    13    14    1
    16    14    15   ar
    17    15    16   ar
    18    16    17   ar
    19    17    21    1
    20    21    22    1
    21    21    23    1
    22    21    24    1
    23    17    18   ar
    24    18    19   ar
    25    19    20    1
    26     7     8    1
    27    26    29    1
    28    29    30    1
    29    30    31    1
    30    31    32    1
    31    32    33    1
    32    33    34    1
    33     8     1    1
    34    34    29    1
    35     7     3    1
    36    20    11    1
    37    19    14   ar
    38    27    28    1
@<TRIPOS>MOLECULE
*****
 34 38 0 0 0
SMALL
GASTEIGER

@<TRIPOS>ATOM
      1 C         143.2753  139.1774  165.4740 C.3     1  UNL1        0.0720
      2 C         144.5291  139.2039  164.6512 C.3     1  UNL1        0.0200
      3 C         144.1958  138.6906  163.2817 C.3     1  UNL1        0.0098
      4 C         144.7647  138.3898  161.9268 C.3     1  UNL1        0.0005
      5 C         143.6565  137.8601  161.0659 C.3     1  UNL1        0.0005
      6 C         142.4026  137.8336  161.8887 C.3     1  UNL1        0.0087
      7 C         142.7359  138.3469  163.2582 C.3     1  UNL1        0.0707
      8 C         142.1670  138.6477  164.6131 C.3     1  UNL1        0.0282
      9 C         141.2760  138.0031  163.2347 C.2     1  UNL1        0.2250
     10 O         140.8394  136.5749  163.3742 O.2     1  UNL1       -0.2749
     11 N         140.2527  139.0877  163.0716 N.am    1  UNL1       -0.2750
     12 C         138.7928  138.7440  163.0481 C.3     1  UNL1        0.1000
     13 C         137.7695  139.8285  162.8851 C.3     1  UNL1        0.0670
     14 C         138.2061  141.2568  162.7456 C.ar    1  UNL1        0.0583
     15 N         137.1827  142.3414  162.5826 N.ar    1  UNL1       -0.2484
     16 C         137.6193  143.7696  162.4431 C.ar    1  UNL1        0.1023
     17 C         139.0793  144.1133  162.4666 C.ar    1  UNL1        0.0902
     18 C         140.1025  143.0288  162.6296 C.ar    1  UNL1        0.0040
     19 C         139.6660  141.6005  162.7691 C.ar    1  UNL1        0.0113
     20 C         140.6892  140.5160  162.9322 C.3     1  UNL1        0.1213
     21 C         139.5158  145.5416  162.3271 C.3     1  UNL1        0.4200
     22 F         139.9524  146.9698  162.1877 F       1  UNL1       -0.1658
     23 F         139.5723  145.3788  160.8371 F       1  UNL1       -0.1658
     24 F         139.4594  145.7044  163.8172 F       1  UNL1       -0.1658
     25 O         141.7173  141.6440  166.1730 O.2     1  UNL1       -0.2751
     26 C         142.3724  140.8387  167.2559 C.2     1  UNL1        0.2221
     27 N         143.1514  139.6054  166.9064 N.am    1  UNL1       -0.3060
     28 H         143.5813  139.0769  167.6170 H       1  UNL1        0.1494
     29 C         142.2485  141.2667  168.6881 C.3     1  UNL1        0.0815
     30 C         142.9500  142.5040  169.1645 C.3     1  UNL1        0.0412
     31 C         142.8261  142.9321  170.5968 C.3     1  UNL1        0.1427
     32 O         142.0006  142.1228  171.5527 O.3     1  UNL1       -0.3538
     33 C         141.2991  140.8855  171.0763 C.3     1  UNL1        0.1427
     34 C         141.4230  140.4575  169.6440 C.3     1  UNL1        0.0412
@<TRIPOS>BOND
     1    25    26    2
     2    26    27   am
     3     1    27    1
     4     1     2    1
     5     3     2    1
     6     3     4    1
     7     4     5    1
     8     5     6    1
     9     6     7    1
    10     7     9    1
    11     9    10    2
    12     9    11   am
    13    11    12    1
    14    12    13    1
    15    13    14    1
    16    14    15   ar
    17    15    16   ar
    18    16    17   ar
    19    17    21    1
    20    21    22    1
    21    21    23    1
    22    21    24    1
    23    17    18   ar
    24    18    19   ar
    25    19    20    1
    26     7     8    1
    27    26    29    1
    28    29    30    1
    29    30    31    1
    30    31    32    1
    31    32    33    1
    32    33    34    1
    33     8     1    1
    34    34    29    1
    35     7     3    1
    36    20    11    1
    37    19    14   ar
    38    27    28    1
@<TRIPOS>MOLECULE
*****
 34 38 0 0 0
SMALL
GASTEIGER

@<TRIPOS>ATOM
      1 C         139.8336  139.8794  165.2118 C.3     1  UNL1        0.0720
      2 C         139.5635  138.5017  164.6837 C.3     1  UNL1        0.0200
      3 C         138.8126  138.6392  163.3925 C.3     1  UNL1        0.0098
      4 C         138.1816  137.8727  162.2681 C.3     1  UNL1        0.0005
      5 C         137.5976  138.8617  161.3032 C.3     1  UNL1        0.0005
      6 C         137.8676  140.2394  161.8313 C.3     1  UNL1        0.0087
      7 C         138.6185  140.1019  163.1226 C.3     1  UNL1        0.0707
      8 C         139.2496  140.8684  164.2470 C.3     1  UNL1        0.0282
      9 C         138.4246  141.5646  162.8527 C.2     1  UNL1        0.2250
     10 O         137.3238  142.3150  163.5421 O.2     1  UNL1       -0.2749
     11 N         139.3313  142.2770  161.8933 N.am    1  UNL1       -0.2750
     12 C         139.1373  143.7397  161.6234 C.3     1  UNL1        0.1000
     13 C         140.0440  144.4520  160.6640 C.3     1  UNL1        0.0670
     14 C         141.1448  143.7016  159.9745 C.ar    1  UNL1        0.0583
     15 N         142.0515  144.4140  159.0151 N.ar    1  UNL1       -0.2484
     16 C         143.1522  143.6636  158.3257 C.ar    1  UNL1        0.1023
     17 C         143.3462  142.2009  158.5956 C.ar    1  UNL1        0.0902
     18 C         142.4394  141.4885  159.5549 C.ar    1  UNL1        0.0040
     19 C         141.3387  142.2389  160.2444 C.ar    1  UNL1        0.0113
     20 C         140.4320  141.5266  161.2038 C.3     1  UNL1        0.1213
     21 C         144.4469  141.4505  157.9061 C.3     1  UNL1        0.4200
     22 F         145.5476  140.7001  157.2166 F       1  UNL1       -0.1658
     23 F         144.9012  142.7203  157.2495 F       1  UNL1       -0.1658
     24 F         143.9926  140.1807  158.5628 F       1  UNL1       -0.1658
     25 O         138.5548  139.3061  167.8643 O.2     1  UNL1       -0.2751
     26 C         139.9207  139.9235  167.8081 C.2     1  UNL1        0.2221
     27 N         140.5601  140.2101  166.4818 N.am    1  UNL1       -0.3060
     28 H         141.4566  140.6154  166.4448 H       1  UNL1        0.1494
     29 C         140.6472  140.2542  169.0780 C.3     1  UNL1        0.0815
     30 C         140.0464  141.2198  170.0561 C.3     1  UNL1        0.0412
     31 C         140.7728  141.5505  171.3261 C.3     1  UNL1        0.1427
     32 O         142.1002  140.9156  171.6180 O.3     1  UNL1       -0.3538
     33 C         142.7010  139.9500  170.6399 C.3     1  UNL1        0.1427
     34 C         141.9744  139.6193  169.3699 C.3     1  UNL1        0.0412
@<TRIPOS>BOND
     1    25    26    2
     2    26    27   am
     3     1    27    1
     4     1     2    1
     5     3     2    1
     6     3     4    1
     7     4     5    1
     8     5     6    1
     9     6     7    1
    10     7     9    1
    11     9    10    2
    12     9    11   am
    13    11    12    1
    14    12    13    1
    15    13    14    1
    16    14    15   ar
    17    15    16   ar
    18    16    17   ar
    19    17    21    1
    20    21    22    1
    21    21    23    1
    22    21    24    1
    23    17    18   ar
    24    18    19   ar
    25    19    20    1
    26     7     8    1
    27    26    29    1
    28    29    30    1
    29    30    31    1
    30    31    32    1
    31    32    33    1
    32    33    34    1
    33     8     1    1
    34    34    29    1
    35     7     3    1
    36    20    11    1
    37    19    14   ar
    38    27    28    1
@<TRIPOS>MOLECULE
*****
 34 38 0 0 0
SMALL
GASTEIGER

@<TRIPOS>ATOM
      1 C         140.4414  143.9855  159.8524 C.3     1  UNL1        0.0720
      2 C         140.2877  145.1102  160.8329 C.3     1  UNL1        0.0200
      3 C         141.3120  144.9266  161.9133 C.3     1  UNL1        0.0098
      4 C         141.8501  145.5082  163.1869 C.3     1  UNL1        0.0005
      5 C         142.9694  144.6294  163.6612 C.3     1  UNL1        0.0005
      6 C         143.1230  143.5047  162.6807 C.3     1  UNL1        0.0087
      7 C         142.0987  143.6883  161.6004 C.3     1  UNL1        0.0707
      8 C         141.5606  143.1067  160.3268 C.3     1  UNL1        0.0282
      9 C         142.8854  142.4501  161.2876 C.2     1  UNL1        0.2250
     10 O         144.0484  142.5192  160.3427 O.2     1  UNL1       -0.2749
     11 N         142.5092  141.1428  161.9196 N.am    1  UNL1       -0.2750
     12 C         143.2959  139.9046  161.6068 C.3     1  UNL1        0.1000
     13 C         142.9197  138.5974  162.2388 C.3     1  UNL1        0.0670
     14 C         141.7567  138.5283  163.1837 C.ar    1  UNL1        0.0583
     15 N         141.3805  137.2210  163.8157 N.ar    1  UNL1       -0.2484
     16 C         140.2176  137.1519  164.7606 C.ar    1  UNL1        0.1023
     17 C         139.4308  138.3902  165.0734 C.ar    1  UNL1        0.0902
     18 C         139.8071  139.6975  164.4414 C.ar    1  UNL1        0.0040
     19 C         140.9700  139.7665  163.4965 C.ar    1  UNL1        0.0113
     20 C         141.3463  141.0737  162.8645 C.3     1  UNL1        0.1213
     21 C         138.2679  138.3212  166.0183 C.3     1  UNL1        0.4200
     22 F         137.1049  138.2521  166.9632 F       1  UNL1       -0.1658
     23 F         138.2516  139.8184  166.1077 F       1  UNL1       -0.1658
     24 F         138.2842  136.8239  165.9289 F       1  UNL1       -0.1658
     25 O         138.3666  141.8199  159.7776 O.2     1  UNL1       -0.2751
     26 C         138.5826  142.6935  158.5774 C.2     1  UNL1        0.2221
     27 N         139.6200  143.7763  158.6148 N.am    1  UNL1       -0.3060
     28 H         139.7617  144.3496  157.8272 H       1  UNL1        0.1494
     29 C         137.7612  142.4842  157.3399 C.3     1  UNL1        0.0815
     30 C         137.6460  143.5799  156.3220 C.3     1  UNL1        0.0412
     31 C         136.8247  143.3706  155.0844 C.3     1  UNL1        0.1427
     32 O         136.1184  142.0656  154.8648 O.3     1  UNL1       -0.3538
     33 C         136.2335  140.9699  155.8828 C.3     1  UNL1        0.1427
     34 C         137.0549  141.1792  157.1204 C.3     1  UNL1        0.0412
@<TRIPOS>BOND
     1    25    26    2
     2    26    27   am
     3     1    27    1
     4     1     2    1
     5     3     2    1
     6     3     4    1
     7     4     5    1
     8     5     6    1
     9     6     7    1
    10     7     9    1
    11     9    10    2
    12     9    11   am
    13    11    12    1
    14    12    13    1
    15    13    14    1
    16    14    15   ar
    17    15    16   ar
    18    16    17   ar
    19    17    21    1
    20    21    22    1
    21    21    23    1
    22    21    24    1
    23    17    18   ar
    24    18    19   ar
    25    19    20    1
    26     7     8    1
    27    26    29    1
    28    29    30    1
    29    30    31    1
    30    31    32    1
    31    32    33    1
    32    33    34    1
    33     8     1    1
    34    34    29    1
    35     7     3    1
    36    20    11    1
    37    19    14   ar
    38    27    28    1
@<TRIPOS>MOLECULE
*****
 34 38 0 0 0
SMALL
GASTEIGER

@<TRIPOS>ATOM
      1 C         143.1022  142.8304  161.1360 C.3     1  UNL1        0.0720
      2 C         144.3786  143.2130  161.8249 C.3     1  UNL1        0.0200
      3 C         144.7843  142.0754  162.7143 C.3     1  UNL1        0.0098
      4 C         145.8239  141.6087  163.6898 C.3     1  UNL1        0.0005
      5 C         145.4409  140.2346  164.1535 C.3     1  UNL1        0.0005
      6 C         144.1645  139.8520  163.4647 C.3     1  UNL1        0.0087
      7 C         143.7587  140.9896  162.5752 C.3     1  UNL1        0.0707
      8 C         142.7192  141.4562  161.5998 C.3     1  UNL1        0.0282
      9 C         142.7332  139.9039  162.4361 C.2     1  UNL1        0.2250
     10 O         142.6927  139.0652  161.1932 O.2     1  UNL1       -0.2749
     11 N         141.7479  139.6569  163.5400 N.am    1  UNL1       -0.2750
     12 C         140.7224  138.5712  163.4008 C.3     1  UNL1        0.1000
     13 C         139.7372  138.3242  164.5046 C.3     1  UNL1        0.0670
     14 C         139.7777  139.1630  165.7476 C.ar    1  UNL1        0.0583
     15 N         138.7924  138.9160  166.8514 N.ar    1  UNL1       -0.2484
     16 C         138.8329  139.7547  168.0944 C.ar    1  UNL1        0.1023
     17 C         139.8585  140.8404  168.2334 C.ar    1  UNL1        0.0902
     18 C         140.8437  141.0874  167.1296 C.ar    1  UNL1        0.0040
     19 C         140.8032  140.2487  165.8867 C.ar    1  UNL1        0.0113
     20 C         141.7884  140.4956  164.7829 C.3     1  UNL1        0.1213
     21 C         139.8989  141.6792  169.4764 C.3     1  UNL1        0.4200
     22 F         139.9394  142.5179  170.7193 F       1  UNL1       -0.1658
     23 F         138.7716  140.8763  170.0548 F       1  UNL1       -0.1658
     24 F         141.0263  142.4820  168.8979 F       1  UNL1       -0.1658
     25 O         143.9981  142.9815  158.2769 O.2     1  UNL1       -0.2751
     26 C         142.7903  143.7494  158.7260 C.2     1  UNL1        0.2221
     27 N         142.3423  143.6738  160.1555 N.am    1  UNL1       -0.3060
     28 H         141.5496  144.1777  160.4503 H       1  UNL1        0.1494
     29 C         142.0304  144.5927  157.7455 C.3     1  UNL1        0.0815
     30 C         140.9156  145.4761  158.2219 C.3     1  UNL1        0.0412
     31 C         140.1558  146.3194  157.2414 C.3     1  UNL1        0.1427
     32 O         140.5107  146.2794  155.7845 O.3     1  UNL1       -0.3538
     33 C         141.6255  145.3961  155.3082 C.3     1  UNL1        0.1427
     34 C         142.3853  144.5527  156.2887 C.3     1  UNL1        0.0412
@<TRIPOS>BOND
     1    25    26    2
     2    26    27   am
     3     1    27    1
     4     1     2    1
     5     3     2    1
     6     3     4    1
     7     4     5    1
     8     5     6    1
     9     6     7    1
    10     7     9    1
    11     9    10    2
    12     9    11   am
    13    11    12    1
    14    12    13    1
    15    13    14    1
    16    14    15   ar
    17    15    16   ar
    18    16    17   ar
    19    17    21    1
    20    21    22    1
    21    21    23    1
    22    21    24    1
    23    17    18   ar
    24    18    19   ar
    25    19    20    1
    26     7     8    1
    27    26    29    1
    28    29    30    1
    29    30    31    1
    30    31    32    1
    31    32    33    1
    32    33    34    1
    33     8     1    1
    34    34    29    1
    35     7     3    1
    36    20    11    1
    37    19    14   ar
    38    27    28    1
@<TRIPOS>MOLECULE
*****
 34 38 0 0 0
SMALL
GASTEIGER

@<TRIPOS>ATOM
      1 C         142.0650  142.8130  159.8242 C.3     1  UNL1        0.0720
      2 C         140.8000  143.5792  159.5740 C.3     1  UNL1        0.0200
      3 C         140.5960  144.5244  160.7207 C.3     1  UNL1        0.0098
      4 C         139.6882  145.5821  161.2748 C.3     1  UNL1        0.0005
      5 C         140.2660  146.0537  162.5762 C.3     1  UNL1        0.0005
      6 C         141.5310  145.2875  162.8265 C.3     1  UNL1        0.0087
      7 C         141.7350  144.3423  161.6797 C.3     1  UNL1        0.0707
      8 C         142.6429  143.2846  161.1256 C.3     1  UNL1        0.0282
      9 C         142.8739  144.1602  162.6387 C.2     1  UNL1        0.2250
     10 O         144.1694  144.8811  162.4101 O.2     1  UNL1       -0.2749
     11 N         142.7175  143.2573  163.8262 N.am    1  UNL1       -0.2750
     12 C         143.8564  143.0752  164.7852 C.3     1  UNL1        0.1000
     13 C         143.6999  142.1723  165.9727 C.3     1  UNL1        0.0670
     14 C         142.4045  141.4514  166.2012 C.ar    1  UNL1        0.0583
     15 N         142.2481  140.5485  167.3888 N.ar    1  UNL1       -0.2484
     16 C         140.9526  139.8276  167.6174 C.ar    1  UNL1        0.1023
     17 C         139.8136  140.0098  166.6584 C.ar    1  UNL1        0.0902
     18 C         139.9701  140.9127  165.4709 C.ar    1  UNL1        0.0040
     19 C         141.2656  141.6335  165.2423 C.ar    1  UNL1        0.0113
     20 C         141.4221  142.5364  164.0548 C.3     1  UNL1        0.1213
     21 C         138.5182  139.2889  166.8869 C.3     1  UNL1        0.4200
     22 F         137.2228  138.5681  167.1155 F       1  UNL1       -0.1658
     23 F         138.4592  138.9334  165.4309 F       1  UNL1       -0.1658
     24 F         138.5773  139.6445  168.3430 F       1  UNL1       -0.1658
     25 O         140.7597  140.1190  159.6271 O.2     1  UNL1       -0.2751
     26 C         141.9970  140.4130  158.8315 C.2     1  UNL1        0.2221
     27 N         142.6496  141.7600  158.9300 N.am    1  UNL1       -0.3060
     28 H         143.4616  141.9529  158.4079 H       1  UNL1        0.1494
     29 C         142.5815  139.3600  157.9373 C.3     1  UNL1        0.0815
     30 C         142.3016  137.9105  158.2032 C.3     1  UNL1        0.0412
     31 C         142.8861  136.8575  157.3091 C.3     1  UNL1        0.1427
     32 O         143.7506  137.2540  156.1490 O.3     1  UNL1       -0.3538
     33 C         144.0304  138.7035  155.8832 C.3     1  UNL1        0.1427
     34 C         143.4459  139.7565  156.7774 C.3     1  UNL1        0.0412
@<TRIPOS>BOND
     1    25    26    2
     2    26    27   am
     3     1    27    1
     4     1     2    1
     5     3     2    1
     6     3     4    1
     7     4     5    1
     8     5     6    1
     9     6     7    1
    10     7     9    1
    11     9    10    2
    12     9    11   am
    13    11    12    1
    14    12    13    1
    15    13    14    1
    16    14    15   ar
    17    15    16   ar
    18    16    17   ar
    19    17    21    1
    20    21    22    1
    21    21    23    1
    22    21    24    1
    23    17    18   ar
    24    18    19   ar
    25    19    20    1
    26     7     8    1
    27    26    29    1
    28    29    30    1
    29    30    31    1
    30    31    32    1
    31    32    33    1
    32    33    34    1
    33     8     1    1
    34    34    29    1
    35     7     3    1
    36    20    11    1
    37    19    14   ar
    38    27    28    1
@<TRIPOS>MOLECULE
*****
 34 38 0 0 0
SMALL
GASTEIGER

@<TRIPOS>ATOM
      1 C         140.4699  142.6794  166.9025 C.3     1  UNL1        0.0720
      2 C         141.4035  143.0548  168.0148 C.3     1  UNL1        0.0200
      3 C         141.3376  141.9792  169.0583 C.3     1  UNL1        0.0098
      4 C         141.8738  141.5464  170.3906 C.3     1  UNL1        0.0005
      5 C         141.2309  140.2388  170.7465 C.3     1  UNL1        0.0005
      6 C         140.2972  139.8633  169.6342 C.3     1  UNL1        0.0087
      7 C         140.3632  140.9389  168.5908 C.3     1  UNL1        0.0707
      8 C         139.8269  141.3717  167.2584 C.3     1  UNL1        0.0282
      9 C         139.3888  139.8988  168.1233 C.2     1  UNL1        0.2250
     10 O         138.2113  139.5357  168.9787 O.2     1  UNL1       -0.2749
     11 N         139.5918  139.2216  166.8002 N.am    1  UNL1       -0.2750
     12 C         138.6174  138.1815  166.3327 C.3     1  UNL1        0.1000
     13 C         138.8205  137.5044  165.0098 C.3     1  UNL1        0.0670
     14 C         139.9979  137.8675  164.1543 C.ar    1  UNL1        0.0583
     15 N         140.2010  137.1903  162.8313 N.ar    1  UNL1       -0.2484
     16 C         141.3784  137.5534  161.9758 C.ar    1  UNL1        0.1023
     17 C         142.3528  138.5936  162.4434 C.ar    1  UNL1        0.0902
     18 C         142.1498  139.2707  163.7664 C.ar    1  UNL1        0.0040
     19 C         140.9723  138.9076  164.6218 C.ar    1  UNL1        0.0113
     20 C         140.7693  139.5847  165.9448 C.3     1  UNL1        0.1213
     21 C         143.5303  138.9567  161.5880 C.3     1  UNL1        0.4200
     22 F         144.7077  139.3197  160.7325 F       1  UNL1       -0.1658
     23 F         143.2806  140.4103  161.8612 F       1  UNL1       -0.1658
     24 F         143.7800  137.5031  161.3147 F       1  UNL1       -0.1658
     25 O         142.4328  142.5602  164.6369 O.2     1  UNL1       -0.2751
     26 C         141.2040  143.4128  164.5206 C.2     1  UNL1        0.2221
     27 N         140.2226  143.4724  165.6534 N.am    1  UNL1       -0.3060
     28 H         139.4162  144.0319  165.5771 H       1  UNL1        0.1494
     29 C         140.9568  144.2057  163.2716 C.3     1  UNL1        0.0815
     30 C         139.8777  145.2473  163.2457 C.3     1  UNL1        0.0412
     31 C         139.6305  146.0402  161.9967 C.3     1  UNL1        0.1427
     32 O         140.4624  145.7916  160.7735 O.3     1  UNL1       -0.3538
     33 C         141.5415  144.7500  160.7994 C.3     1  UNL1        0.1427
     34 C         141.7887  143.9570  162.0485 C.3     1  UNL1        0.0412
@<TRIPOS>BOND
     1    25    26    2
     2    26    27   am
     3     1    27    1
     4     1     2    1
     5     3     2    1
     6     3     4    1
     7     4     5    1
     8     5     6    1
     9     6     7    1
    10     7     9    1
    11     9    10    2
    12     9    11   am
    13    11    12    1
    14    12    13    1
    15    13    14    1
    16    14    15   ar
    17    15    16   ar
    18    16    17   ar
    19    17    21    1
    20    21    22    1
    21    21    23    1
    22    21    24    1
    23    17    18   ar
    24    18    19   ar
    25    19    20    1
    26     7     8    1
    27    26    29    1
    28    29    30    1
    29    30    31    1
    30    31    32    1
    31    32    33    1
    32    33    34    1
    33     8     1    1
    34    34    29    1
    35     7     3    1
    36    20    11    1
    37    19    14   ar
    38    27    28    1
@<TRIPOS>MOLECULE
*****
 34 38 0 0 0
SMALL
GASTEIGER

@<TRIPOS>ATOM
      1 C         142.3993  139.6406  158.8108 C.3     1  UNL1        0.0720
      2 C         143.7463  140.2977  158.7499 C.3     1  UNL1        0.0200
      3 C         144.1742  140.3456  157.3131 C.3     1  UNL1        0.0098
      4 C         145.2711  140.7812  156.3874 C.3     1  UNL1        0.0005
      5 C         144.8665  140.4229  154.9881 C.3     1  UNL1        0.0005
      6 C         143.5195  139.7657  155.0490 C.3     1  UNL1        0.0087
      7 C         143.0916  139.7179  156.4859 C.3     1  UNL1        0.0707
      8 C         141.9947  139.2823  157.4116 C.3     1  UNL1        0.0282
      9 C         142.0091  139.0903  155.6588 C.2     1  UNL1        0.2250
     10 O         141.0401  139.9564  154.9097 O.2     1  UNL1       -0.2749
     11 N         141.8954  137.5966  155.5807 N.am    1  UNL1       -0.2750
     12 C         140.8129  136.9690  154.7536 C.3     1  UNL1        0.1000
     13 C         140.6993  135.4754  154.6756 C.3     1  UNL1        0.0670
     14 C         141.6682  134.6094  155.4247 C.ar    1  UNL1        0.0583
     15 N         141.5546  133.1157  155.3466 N.ar    1  UNL1       -0.2484
     16 C         142.5235  132.2497  156.0957 C.ar    1  UNL1        0.1023
     17 C         143.6061  132.8773  156.9228 C.ar    1  UNL1        0.0902
     18 C         143.7197  134.3710  157.0008 C.ar    1  UNL1        0.0040
     19 C         142.7508  135.2370  156.2518 C.ar    1  UNL1        0.0113
     20 C         142.8644  136.7306  156.3298 C.3     1  UNL1        0.1213
     21 C         144.5751  132.0113  157.6719 C.3     1  UNL1        0.4200
     22 F         145.5441  131.1453  158.4210 F       1  UNL1       -0.1658
     23 F         145.0131  133.1983  158.4776 F       1  UNL1       -0.1658
     24 F         144.1371  130.8243  156.8662 F       1  UNL1       -0.1658
     25 O         143.0155  137.2630  160.5334 O.2     1  UNL1       -0.2751
     26 C         141.9057  138.1976  160.9142 C.2     1  UNL1        0.2221
     27 N         141.5976  139.3864  160.0529 N.am    1  UNL1       -0.3060
     28 H         140.8692  139.9998  160.3029 H       1  UNL1        0.1494
     29 C         141.1041  137.9434  162.1563 C.3     1  UNL1        0.0815
     30 C         141.8010  137.6514  163.4521 C.3     1  UNL1        0.0412
     31 C         140.9994  137.3972  164.6941 C.3     1  UNL1        0.1427
     32 O         139.5007  137.4349  164.6404 O.3     1  UNL1       -0.3538
     33 C         138.8038  137.7268  163.3446 C.3     1  UNL1        0.1427
     34 C         139.6056  137.9811  162.1025 C.3     1  UNL1        0.0412
@<TRIPOS>BOND
     1    25    26    2
     2    26    27   am
     3     1    27    1
     4     1     2    1
     5     3     2    1
     6     3     4    1
     7     4     5    1
     8     5     6    1
     9     6     7    1
    10     7     9    1
    11     9    10    2
    12     9    11   am
    13    11    12    1
    14    12    13    1
    15    13    14    1
    16    14    15   ar
    17    15    16   ar
    18    16    17   ar
    19    17    21    1
    20    21    22    1
    21    21    23    1
    22    21    24    1
    23    17    18   ar
    24    18    19   ar
    25    19    20    1
    26     7     8    1
    27    26    29    1
    28    29    30    1
    29    30    31    1
    30    31    32    1
    31    32    33    1
    32    33    34    1
    33     8     1    1
    34    34    29    1
    35     7     3    1
    36    20    11    1
    37    19    14   ar
    38    27    28    1
