@<TRIPOS>MOLECULE
*****
 32 35 0 0 0
SMALL
GASTEIGER

@<TRIPOS>ATOM
      1 C         139.2516  139.8897  168.2035 C.ar    1  UNL1        0.1317
      2 C         139.0419  140.0868  169.6756 C.ar    1  UNL1        0.0548
      3 C         140.0527  140.8472  170.4818 C.ar    1  UNL1        0.1049
      4 N         141.2732  141.4103  169.8160 N.ar    1  UNL1       -0.2105
      5 N         142.4336  142.1980  170.3482 N.ar    1  UNL1       -0.1621
      6 C         143.3604  142.4876  169.2049 C.ar    1  UNL1        0.1236
      7 C         142.7728  141.8789  167.9662 C.ar    1  UNL1        0.0567
      8 C         141.4828  141.2131  168.3439 C.ar    1  UNL1        0.1666
      9 N         140.4720  140.4528  167.5377 N.ar    1  UNL1       -0.2120
     10 C         143.3703  141.9275  166.5912 C.ar    1  UNL1        0.0045
     11 C         143.9500  143.2091  166.0702 C.ar    1  UNL1        0.0001
     12 C         144.5475  143.2577  164.6952 C.ar    1  UNL1       -0.0001
     13 C         144.5653  142.0248  163.8411 C.ar    1  UNL1        0.0039
     14 C         143.9855  140.7432  164.3621 C.ar    1  UNL1        0.0714
     15 C         143.3880  140.6946  165.7371 C.ar    1  UNL1        0.0040
     16 C         144.0033  139.5101  163.5081 C.3     1  UNL1        0.4186
     17 F         144.0210  138.2771  162.6540 F       1  UNL1       -0.1659
     18 F         142.7034  139.9236  162.8842 F       1  UNL1       -0.1659
     19 F         145.3032  139.0967  164.1320 F       1  UNL1       -0.1659
     20 N         138.2407  139.1293  167.3971 N.pl3   1  UNL1       -0.3196
     21 H         137.4657  138.7165  167.8422 H       1  UNL1        0.1481
     22 C         138.7509  138.7353  162.9435 C.3     1  UNL1        0.0248
     23 C         139.0625  137.5736  163.8398 C.3     1  UNL1        0.0040
     24 C         138.8924  137.7049  165.3244 C.3     1  UNL1        0.0196
     25 C         138.4108  138.9980  165.9126 C.3     1  UNL1        0.0704
     26 C         138.0992  140.1597  165.0162 C.3     1  UNL1        0.0196
     27 C         138.2693  140.0283  163.5317 C.3     1  UNL1        0.0040
     28 C         140.2756  137.9946  161.6681 C.3     1  UNL1        0.0293
     29 C         138.9210  138.6039  161.4590 C.3     1  UNL1        0.0884
     30 C         137.5664  139.2132  161.2499 C.3     1  UNL1        0.0293
     31 O         139.0910  138.4725  159.9744 O.3     1  UNL1       -0.3867
     32 H         139.9536  138.0727  159.7819 H       1  UNL1        0.2102
@<TRIPOS>BOND
     1    28    29    1
     2    29    30    1
     3    29    31    1
     4    22    29    1
     5    22    23    1
     6    23    24    1
     7    24    25    1
     8    25    20    1
     9    20     1    1
    10     1     2   ar
    11     2     3   ar
    12     3     4   ar
    13     4     5   ar
    14     5     6   ar
    15     6     7   ar
    16     7    10    1
    17    10    11   ar
    18    11    12   ar
    19    12    13   ar
    20    13    14   ar
    21    14    16    1
    22    16    17    1
    23    16    18    1
    24    16    19    1
    25    14    15   ar
    26     7     8   ar
    27     8     9   ar
    28    25    26    1
    29    26    27    1
    30    27    22    1
    31     9     1   ar
    32     8     4   ar
    33    15    10   ar
    34    31    32    1
    35    20    21    1
@<TRIPOS>MOLECULE
*****
 32 35 0 0 0
SMALL
GASTEIGER

@<TRIPOS>ATOM
      1 C         139.7435  138.5704  160.1831 C.ar    1  UNL1        0.1317
      2 C         139.5726  138.4918  158.6949 C.ar    1  UNL1        0.0548
      3 C         140.6645  138.9767  157.7880 C.ar    1  UNL1        0.1049
      4 N         141.9273  139.5402  158.3692 N.ar    1  UNL1       -0.2105
      5 N         143.1675  140.0916  157.7304 N.ar    1  UNL1       -0.1621
      6 C         144.1049  140.5109  158.8238 C.ar    1  UNL1        0.1236
      7 C         143.4440  140.2187  160.1383 C.ar    1  UNL1        0.0567
      8 C         142.0982  139.6187  159.8573 C.ar    1  UNL1        0.1666
      9 N         141.0063  139.1339  160.7643 N.ar    1  UNL1       -0.2120
     10 C         144.0267  140.4804  161.4955 C.ar    1  UNL1        0.0045
     11 C         144.8632  141.7033  161.7294 C.ar    1  UNL1        0.0001
     12 C         145.4459  141.9650  163.0866 C.ar    1  UNL1       -0.0001
     13 C         145.1920  141.0040  164.2099 C.ar    1  UNL1        0.0039
     14 C         144.3554  139.7811  163.9760 C.ar    1  UNL1        0.0714
     15 C         143.7728  139.5194  162.6188 C.ar    1  UNL1        0.0040
     16 C         144.1015  138.8199  165.0993 C.3     1  UNL1        0.4186
     17 F         143.8476  137.8588  166.2226 F       1  UNL1       -0.1659
     18 F         145.5792  138.6864  165.3190 F       1  UNL1       -0.1659
     19 F         142.6237  138.9535  164.8795 F       1  UNL1       -0.1659
     20 N         138.6516  138.0855  161.0901 N.pl3   1  UNL1       -0.3196
     21 H         137.9009  137.5653  160.7224 H       1  UNL1        0.1481
     22 C         138.8069  139.0085  165.4917 C.3     1  UNL1        0.0248
     23 C         138.2304  140.0099  164.5353 C.3     1  UNL1        0.0040
     24 C         138.1786  139.7023  163.0680 C.3     1  UNL1        0.0196
     25 C         138.7033  138.3932  162.5573 C.3     1  UNL1        0.0704
     26 C         139.2798  137.3917  163.5137 C.3     1  UNL1        0.0196
     27 C         139.3316  137.6994  164.9809 C.3     1  UNL1        0.0040
     28 C         140.1054  140.1224  166.7457 C.3     1  UNL1        0.0293
     29 C         138.8587  139.3161  166.9588 C.3     1  UNL1        0.0884
     30 C         137.6119  138.5098  167.1719 C.3     1  UNL1        0.0293
     31 O         138.9104  139.6238  168.4261 O.3     1  UNL1       -0.3867
     32 H         139.6817  140.1817  168.6125 H       1  UNL1        0.2102
@<TRIPOS>BOND
     1    28    29    1
     2    29    30    1
     3    29    31    1
     4    22    29    1
     5    22    23    1
     6    23    24    1
     7    24    25    1
     8    25    20    1
     9    20     1    1
    10     1     2   ar
    11     2     3   ar
    12     3     4   ar
    13     4     5   ar
    14     5     6   ar
    15     6     7   ar
    16     7    10    1
    17    10    11   ar
    18    11    12   ar
    19    12    13   ar
    20    13    14   ar
    21    14    16    1
    22    16    17    1
    23    16    18    1
    24    16    19    1
    25    14    15   ar
    26     7     8   ar
    27     8     9   ar
    28    25    26    1
    29    26    27    1
    30    27    22    1
    31     9     1   ar
    32     8     4   ar
    33    15    10   ar
    34    31    32    1
    35    20    21    1
@<TRIPOS>MOLECULE
*****
 32 35 0 0 0
SMALL
GASTEIGER

@<TRIPOS>ATOM
      1 C         139.3356  138.8813  165.4870 C.ar    1  UNL1        0.1317
      2 C         138.5709  137.8439  164.7195 C.ar    1  UNL1        0.0548
      3 C         139.0905  137.3516  163.4014 C.ar    1  UNL1        0.1049
      4 N         140.3750  137.8965  162.8508 N.ar    1  UNL1       -0.2105
      5 N         141.1293  137.6048  161.5874 N.ar    1  UNL1       -0.1621
      6 C         142.3602  138.4619  161.5741 C.ar    1  UNL1        0.1236
      7 C         142.3667  139.2833  162.8292 C.ar    1  UNL1        0.0567
      8 C         141.1397  138.9339  163.6182 C.ar    1  UNL1        0.1666
      9 N         140.6201  139.4263  164.9363 N.ar    1  UNL1       -0.2120
     10 C         143.4159  140.2792  163.2257 C.ar    1  UNL1        0.0045
     11 C         144.7785  139.8084  163.6399 C.ar    1  UNL1        0.0001
     12 C         145.8277  140.8044  164.0364 C.ar    1  UNL1       -0.0001
     13 C         145.5144  142.2712  164.0187 C.ar    1  UNL1        0.0039
     14 C         144.1517  142.7420  163.6045 C.ar    1  UNL1        0.0714
     15 C         143.1025  141.7460  163.2080 C.ar    1  UNL1        0.0040
     16 C         143.8383  144.2088  163.5868 C.3     1  UNL1        0.4186
     17 F         143.5248  145.6756  163.5690 F       1  UNL1       -0.1659
     18 F         143.5465  144.1287  162.1177 F       1  UNL1       -0.1659
     19 F         144.1300  144.2889  165.0560 F       1  UNL1       -0.1659
     20 N         138.8160  139.3737  166.8052 N.pl3   1  UNL1       -0.3196
     21 H         137.9360  139.0749  167.1300 H       1  UNL1        0.1481
     22 C         141.2794  142.2168  169.2747 C.3     1  UNL1        0.0248
     23 C         140.8684  142.5950  167.8826 C.3     1  UNL1        0.0040
     24 C         140.0472  141.6473  167.0594 C.3     1  UNL1        0.0196
     25 C         139.6371  140.3214  167.6283 C.3     1  UNL1        0.0704
     26 C         140.0481  139.9432  169.0205 C.3     1  UNL1        0.0196
     27 C         140.8692  140.8908  169.8437 C.3     1  UNL1        0.0040
     28 C         140.9109  144.0659  170.2466 C.3     1  UNL1        0.0293
     29 C         142.1005  143.1644  170.0979 C.3     1  UNL1        0.0884
     30 C         143.2901  142.2629  169.9491 C.3     1  UNL1        0.0293
     31 O         142.9217  144.1121  170.9211 O.3     1  UNL1       -0.3867
     32 H         142.3735  144.8661  171.1892 H       1  UNL1        0.2102
@<TRIPOS>BOND
     1    28    29    1
     2    29    30    1
     3    29    31    1
     4    22    29    1
     5    22    23    1
     6    23    24    1
     7    24    25    1
     8    25    20    1
     9    20     1    1
    10     1     2   ar
    11     2     3   ar
    12     3     4   ar
    13     4     5   ar
    14     5     6   ar
    15     6     7   ar
    16     7    10    1
    17    10    11   ar
    18    11    12   ar
    19    12    13   ar
    20    13    14   ar
    21    14    16    1
    22    16    17    1
    23    16    18    1
    24    16    19    1
    25    14    15   ar
    26     7     8   ar
    27     8     9   ar
    28    25    26    1
    29    26    27    1
    30    27    22    1
    31     9     1   ar
    32     8     4   ar
    33    15    10   ar
    34    31    32    1
    35    20    21    1
@<TRIPOS>MOLECULE
*****
 32 35 0 0 0
SMALL
GASTEIGER

@<TRIPOS>ATOM
      1 C         138.8633  139.5540  163.5281 C.ar    1  UNL1        0.1317
      2 C         137.8122  139.2506  162.5020 C.ar    1  UNL1        0.0548
      3 C         137.6377  140.1540  161.3174 C.ar    1  UNL1        0.1049
      4 N         138.5144  141.3608  161.1589 N.ar    1  UNL1       -0.2105
      5 N         138.5750  142.4257  160.1042 N.ar    1  UNL1       -0.1621
      6 C         139.6637  143.3873  160.4785 C.ar    1  UNL1        0.1236
      7 C         140.2759  142.9166  161.7645 C.ar    1  UNL1        0.0567
      8 C         139.5655  141.6641  162.1850 C.ar    1  UNL1        0.1666
      9 N         139.7400  140.7607  163.3696 N.ar    1  UNL1       -0.2120
     10 C         141.4009  143.5816  162.5008 C.ar    1  UNL1        0.0045
     11 C         141.2736  145.0131  162.9304 C.ar    1  UNL1        0.0001
     12 C         142.3986  145.6781  163.6667 C.ar    1  UNL1       -0.0001
     13 C         143.6509  144.9116  163.9734 C.ar    1  UNL1        0.0039
     14 C         143.7782  143.4801  163.5438 C.ar    1  UNL1        0.0714
     15 C         142.6532  142.8151  162.8075 C.ar    1  UNL1        0.0040
     16 C         145.0307  142.7135  163.8505 C.3     1  UNL1        0.4186
     17 F         146.2830  141.9470  164.1572 F       1  UNL1       -0.1659
     18 F         145.2775  142.5296  162.3825 F       1  UNL1       -0.1659
     19 F         144.7838  142.8975  165.3186 F       1  UNL1       -0.1659
     20 N         139.0379  138.6505  164.7128 N.pl3   1  UNL1       -0.3196
     21 H         138.5602  137.7905  164.7506 H       1  UNL1        0.1481
     22 C         141.7448  139.8714  168.0939 C.3     1  UNL1        0.0248
     23 C         142.3265  139.2847  166.8419 C.3     1  UNL1        0.0040
     24 C         141.4241  138.8778  165.7148 C.3     1  UNL1        0.0196
     25 C         139.9402  139.0575  165.8398 C.3     1  UNL1        0.0704
     26 C         139.3586  139.6441  167.0919 C.3     1  UNL1        0.0196
     27 C         140.2609  140.0511  168.2189 C.3     1  UNL1        0.0040
     28 C         142.3754  138.9737  169.9095 C.3     1  UNL1        0.0293
     29 C         142.6472  140.2783  169.2209 C.3     1  UNL1        0.0884
     30 C         142.9189  141.5828  168.5323 C.3     1  UNL1        0.0293
     31 O         143.5495  140.6853  170.3480 O.3     1  UNL1       -0.3867
     32 H         143.5784  139.9776  171.0108 H       1  UNL1        0.2102
@<TRIPOS>BOND
     1    28    29    1
     2    29    30    1
     3    29    31    1
     4    22    29    1
     5    22    23    1
     6    23    24    1
     7    24    25    1
     8    25    20    1
     9    20     1    1
    10     1     2   ar
    11     2     3   ar
    12     3     4   ar
    13     4     5   ar
    14     5     6   ar
    15     6     7   ar
    16     7    10    1
    17    10    11   ar
    18    11    12   ar
    19    12    13   ar
    20    13    14   ar
    21    14    16    1
    22    16    17    1
    23    16    18    1
    24    16    19    1
    25    14    15   ar
    26     7     8   ar
    27     8     9   ar
    28    25    26    1
    29    26    27    1
    30    27    22    1
    31     9     1   ar
    32     8     4   ar
    33    15    10   ar
    34    31    32    1
    35    20    21    1
@<TRIPOS>MOLECULE
*****
 32 35 0 0 0
SMALL
GASTEIGER

@<TRIPOS>ATOM
      1 C         139.7346  138.6379  160.3036 C.ar    1  UNL1        0.1317
      2 C         139.6521  138.4737  158.8149 C.ar    1  UNL1        0.0548
      3 C         140.7495  139.0031  157.9401 C.ar    1  UNL1        0.1049
      4 N         141.9294  139.6967  158.5539 N.ar    1  UNL1       -0.2105
      5 N         143.1544  140.3174  157.9504 N.ar    1  UNL1       -0.1621
      6 C         143.9940  140.8653  159.0662 C.ar    1  UNL1        0.1236
      7 C         143.2879  140.5831  160.3592 C.ar    1  UNL1        0.0567
      8 C         142.0119  139.8609  160.0425 C.ar    1  UNL1        0.1666
      9 N         140.9145  139.3315  160.9174 N.ar    1  UNL1       -0.2120
     10 C         143.7726  140.9574  161.7284 C.ar    1  UNL1        0.0045
     11 C         144.3896  139.9174  162.6160 C.ar    1  UNL1        0.0001
     12 C         144.8744  140.2917  163.9852 C.ar    1  UNL1       -0.0001
     13 C         144.7422  141.7061  164.4670 C.ar    1  UNL1        0.0039
     14 C         144.1252  142.7461  163.5795 C.ar    1  UNL1        0.0714
     15 C         143.6404  142.3717  162.2102 C.ar    1  UNL1        0.0040
     16 C         143.9930  144.1605  164.0613 C.3     1  UNL1        0.4186
     17 F         143.8607  145.5749  164.5429 F       1  UNL1       -0.1659
     18 F         143.1676  144.4945  162.8541 F       1  UNL1       -0.1659
     19 F         144.8183  143.8265  165.2684 F       1  UNL1       -0.1659
     20 N         138.6371  138.1086  161.1786 N.pl3   1  UNL1       -0.3196
     21 H         137.9090  137.5747  160.7861 H       1  UNL1        0.1481
     22 C         138.6732  138.9608  165.5970 C.3     1  UNL1        0.0248
     23 C         138.2059  140.0118  164.6343 C.3     1  UNL1        0.0040
     24 C         138.1939  139.7278  163.1614 C.3     1  UNL1        0.0196
     25 C         138.6492  138.3926  162.6513 C.3     1  UNL1        0.0704
     26 C         139.1165  137.3416  163.6141 C.3     1  UNL1        0.0196
     27 C         139.1285  137.6256  165.0869 C.3     1  UNL1        0.0040
     28 C         137.4935  138.3523  167.2516 C.3     1  UNL1        0.0293
     29 C         138.6853  139.2448  167.0697 C.3     1  UNL1        0.0884
     30 C         139.8770  140.1374  166.8879 C.3     1  UNL1        0.0293
     31 O         138.6973  139.5289  168.5426 O.3     1  UNL1       -0.3867
     32 H         137.9733  139.0460  168.9710 H       1  UNL1        0.2102
@<TRIPOS>BOND
     1    28    29    1
     2    29    30    1
     3    29    31    1
     4    22    29    1
     5    22    23    1
     6    23    24    1
     7    24    25    1
     8    25    20    1
     9    20     1    1
    10     1     2   ar
    11     2     3   ar
    12     3     4   ar
    13     4     5   ar
    14     5     6   ar
    15     6     7   ar
    16     7    10    1
    17    10    11   ar
    18    11    12   ar
    19    12    13   ar
    20    13    14   ar
    21    14    16    1
    22    16    17    1
    23    16    18    1
    24    16    19    1
    25    14    15   ar
    26     7     8   ar
    27     8     9   ar
    28    25    26    1
    29    26    27    1
    30    27    22    1
    31     9     1   ar
    32     8     4   ar
    33    15    10   ar
    34    31    32    1
    35    20    21    1
@<TRIPOS>MOLECULE
*****
 32 35 0 0 0
SMALL
GASTEIGER

@<TRIPOS>ATOM
      1 C         139.6951  138.8746  164.4345 C.ar    1  UNL1        0.1317
      2 C         138.9446  137.8587  163.6254 C.ar    1  UNL1        0.0548
      3 C         138.3919  138.2302  162.2814 C.ar    1  UNL1        0.1049
      4 N         138.5897  139.6176  161.7465 N.ar    1  UNL1       -0.2105
      5 N         138.1628  140.2694  160.4647 N.ar    1  UNL1       -0.1621
      6 C         138.6496  141.6881  160.4817 C.ar    1  UNL1        0.1236
      7 C         139.3772  141.9131  161.7739 C.ar    1  UNL1        0.0567
      8 C         139.3402  140.6334  162.5556 C.ar    1  UNL1        0.1666
      9 N         139.8929  140.2619  163.8996 N.ar    1  UNL1       -0.2120
     10 C         140.0277  143.1930  162.2082 C.ar    1  UNL1        0.0045
     11 C         139.4072  144.5100  161.8468 C.ar    1  UNL1        0.0001
     12 C         140.0577  145.7899  162.2812 C.ar    1  UNL1       -0.0001
     13 C         141.3287  145.7529  163.0769 C.ar    1  UNL1        0.0039
     14 C         141.9492  144.4360  163.4383 C.ar    1  UNL1        0.0714
     15 C         141.2987  143.1560  163.0039 C.ar    1  UNL1        0.0040
     16 C         143.2203  144.3989  164.2340 C.3     1  UNL1        0.4186
     17 F         144.4912  144.3618  165.0298 F       1  UNL1       -0.1659
     18 F         142.6359  143.3374  165.1180 F       1  UNL1       -0.1659
     19 F         143.8047  145.4605  163.3500 F       1  UNL1       -0.1659
     20 N         140.2479  138.5031  165.7786 N.pl3   1  UNL1       -0.3196
     21 H         140.3134  137.5560  166.0393 H       1  UNL1        0.1481
     22 C         141.6066  141.7177  168.6194 C.3     1  UNL1        0.0248
     23 C         140.1802  141.2540  168.6384 C.3     1  UNL1        0.0040
     24 C         139.7273  140.1824  167.6915 C.3     1  UNL1        0.0196
     25 C         140.7008  139.5746  166.7256 C.3     1  UNL1        0.0704
     26 C         142.1272  140.0384  166.7066 C.3     1  UNL1        0.0196
     27 C         142.5801  141.1099  167.6535 C.3     1  UNL1        0.0040
     28 C         143.4476  142.2212  169.5453 C.3     1  UNL1        0.0293
     29 C         142.0595  142.7892  169.5663 C.3     1  UNL1        0.0884
     30 C         140.6714  143.3573  169.5874 C.3     1  UNL1        0.0293
     31 O         142.5123  143.8608  170.5133 O.3     1  UNL1       -0.3867
     32 H         143.4563  143.7455  170.7046 H       1  UNL1        0.2102
@<TRIPOS>BOND
     1    28    29    1
     2    29    30    1
     3    29    31    1
     4    22    29    1
     5    22    23    1
     6    23    24    1
     7    24    25    1
     8    25    20    1
     9    20     1    1
    10     1     2   ar
    11     2     3   ar
    12     3     4   ar
    13     4     5   ar
    14     5     6   ar
    15     6     7   ar
    16     7    10    1
    17    10    11   ar
    18    11    12   ar
    19    12    13   ar
    20    13    14   ar
    21    14    16    1
    22    16    17    1
    23    16    18    1
    24    16    19    1
    25    14    15   ar
    26     7     8   ar
    27     8     9   ar
    28    25    26    1
    29    26    27    1
    30    27    22    1
    31     9     1   ar
    32     8     4   ar
    33    15    10   ar
    34    31    32    1
    35    20    21    1
@<TRIPOS>MOLECULE
*****
 32 35 0 0 0
SMALL
GASTEIGER

@<TRIPOS>ATOM
      1 C         142.0389  138.7388  164.5811 C.ar    1  UNL1        0.1317
      2 C         141.7120  137.3057  164.2819 C.ar    1  UNL1        0.0548
      3 C         140.5372  136.9704  163.4118 C.ar    1  UNL1        0.1049
      4 N         139.6891  138.0680  162.8408 N.ar    1  UNL1       -0.2105
      5 N         138.4773  138.0437  161.9570 N.ar    1  UNL1       -0.1621
      6 C         138.0553  139.4617  161.7101 C.ar    1  UNL1        0.1236
      7 C         139.0062  140.3624  162.4411 C.ar    1  UNL1        0.0567
      8 C         140.0160  139.5011  163.1400 C.ar    1  UNL1        0.1666
      9 N         141.1909  139.8364  164.0101 N.ar    1  UNL1       -0.2120
     10 C         138.9562  141.8613  162.4686 C.ar    1  UNL1        0.0045
     11 C         139.0891  142.6397  161.1932 C.ar    1  UNL1        0.0001
     12 C         139.0391  144.1386  161.2207 C.ar    1  UNL1       -0.0001
     13 C         138.8561  144.8592  162.5234 C.ar    1  UNL1        0.0039
     14 C         138.7232  144.0809  163.7988 C.ar    1  UNL1        0.0714
     15 C         138.7732  142.5820  163.7713 C.ar    1  UNL1        0.0040
     16 C         138.5402  144.8015  165.1016 C.3     1  UNL1        0.4186
     17 F         138.3572  145.5220  166.4044 F       1  UNL1       -0.1659
     18 F         137.0835  144.4438  165.0948 F       1  UNL1       -0.1659
     19 F         139.9969  145.1591  165.1084 F       1  UNL1       -0.1659
     20 N         143.2138  139.0742  165.4512 N.pl3   1  UNL1       -0.3196
     21 H         144.1253  138.8469  165.1567 H       1  UNL1        0.1481
     22 C         142.5722  141.1196  169.4078 C.3     1  UNL1        0.0248
     23 C         142.7688  141.9358  168.1648 C.3     1  UNL1        0.0040
     24 C         142.9827  141.2540  166.8459 C.3     1  UNL1        0.0196
     25 C         143.0000  139.7560  166.7701 C.3     1  UNL1        0.0704
     26 C         142.8033  138.9399  168.0132 C.3     1  UNL1        0.0196
     27 C         142.5895  139.6217  169.3320 C.3     1  UNL1        0.0040
     28 C         143.3803  142.8356  170.3577 C.3     1  UNL1        0.0293
     29 C         142.3584  141.8015  170.7266 C.3     1  UNL1        0.0884
     30 C         141.3364  140.7673  171.0956 C.3     1  UNL1        0.0293
     31 O         142.1445  142.4833  172.0455 O.3     1  UNL1       -0.3867
     32 H         142.7214  143.2608  172.1049 H       1  UNL1        0.2102
@<TRIPOS>BOND
     1    28    29    1
     2    29    30    1
     3    29    31    1
     4    22    29    1
     5    22    23    1
     6    23    24    1
     7    24    25    1
     8    25    20    1
     9    20     1    1
    10     1     2   ar
    11     2     3   ar
    12     3     4   ar
    13     4     5   ar
    14     5     6   ar
    15     6     7   ar
    16     7    10    1
    17    10    11   ar
    18    11    12   ar
    19    12    13   ar
    20    13    14   ar
    21    14    16    1
    22    16    17    1
    23    16    18    1
    24    16    19    1
    25    14    15   ar
    26     7     8   ar
    27     8     9   ar
    28    25    26    1
    29    26    27    1
    30    27    22    1
    31     9     1   ar
    32     8     4   ar
    33    15    10   ar
    34    31    32    1
    35    20    21    1
@<TRIPOS>MOLECULE
*****
 32 35 0 0 0
SMALL
GASTEIGER

@<TRIPOS>ATOM
      1 C         142.5272  138.6434  160.4832 C.ar    1  UNL1        0.1317
      2 C         142.7587  138.3219  159.0365 C.ar    1  UNL1        0.0548
      3 C         143.0520  139.4231  158.0612 C.ar    1  UNL1        0.1049
      4 N         143.1139  140.8458  158.5325 N.ar    1  UNL1       -0.2105
      5 N         143.3804  142.1323  157.8086 N.ar    1  UNL1       -0.1621
      6 C         143.3136  143.2489  158.8080 C.ar    1  UNL1        0.1236
      7 C         143.0058  142.6524  160.1495 C.ar    1  UNL1        0.0567
      8 C         142.8824  141.1673  159.9792 C.ar    1  UNL1        0.1666
      9 N         142.5891  140.0661  160.9546 N.ar    1  UNL1       -0.2120
     10 C         142.8490  143.4085  161.4355 C.ar    1  UNL1        0.0045
     11 C         144.0625  143.8659  162.1894 C.ar    1  UNL1        0.0001
     12 C         143.9057  144.6220  163.4754 C.ar    1  UNL1       -0.0001
     13 C         142.5354  144.9205  164.0076 C.ar    1  UNL1        0.0039
     14 C         141.3220  144.4631  163.2538 C.ar    1  UNL1        0.0714
     15 C         141.4788  143.7070  161.9678 C.ar    1  UNL1        0.0040
     16 C         139.9516  144.7616  163.7860 C.3     1  UNL1        0.4186
     17 F         138.5814  145.0601  164.3182 F       1  UNL1       -0.1659
     18 F         140.1887  143.8164  164.9263 F       1  UNL1       -0.1659
     19 F         139.7147  145.7068  162.6456 F       1  UNL1       -0.1659
     20 N         142.2339  137.5422  161.4586 N.pl3   1  UNL1       -0.3196
     21 H         142.6902  136.6741  161.3728 H       1  UNL1        0.1481
     22 C         139.2682  138.2068  164.7772 C.3     1  UNL1        0.0248
     23 C         138.7948  138.1047  163.3576 C.3     1  UNL1        0.0040
     24 C         139.7833  137.8832  162.2513 C.3     1  UNL1        0.0196
     25 C         141.2453  137.7637  162.5648 C.3     1  UNL1        0.0704
     26 C         141.7188  137.8658  163.9845 C.3     1  UNL1        0.0196
     27 C         140.7302  138.0873  165.0907 C.3     1  UNL1        0.0040
     28 C         138.3622  139.9093  165.6606 C.3     1  UNL1        0.0293
     29 C         138.2796  138.4283  165.8833 C.3     1  UNL1        0.0884
     30 C         138.1970  136.9472  166.1061 C.3     1  UNL1        0.0293
     31 O         137.2910  138.6497  166.9896 O.3     1  UNL1       -0.3867
     32 H         137.1282  139.6004  167.0922 H       1  UNL1        0.2102
@<TRIPOS>BOND
     1    28    29    1
     2    29    30    1
     3    29    31    1
     4    22    29    1
     5    22    23    1
     6    23    24    1
     7    24    25    1
     8    25    20    1
     9    20     1    1
    10     1     2   ar
    11     2     3   ar
    12     3     4   ar
    13     4     5   ar
    14     5     6   ar
    15     6     7   ar
    16     7    10    1
    17    10    11   ar
    18    11    12   ar
    19    12    13   ar
    20    13    14   ar
    21    14    16    1
    22    16    17    1
    23    16    18    1
    24    16    19    1
    25    14    15   ar
    26     7     8   ar
    27     8     9   ar
    28    25    26    1
    29    26    27    1
    30    27    22    1
    31     9     1   ar
    32     8     4   ar
    33    15    10   ar
    34    31    32    1
    35    20    21    1
@<TRIPOS>MOLECULE
*****
 32 35 0 0 0
SMALL
GASTEIGER

@<TRIPOS>ATOM
      1 C         140.8680  138.8791  164.5902 C.ar    1  UNL1        0.1317
      2 C         141.4141  137.6689  163.8924 C.ar    1  UNL1        0.0548
      3 C         141.8179  137.7531  162.4503 C.ar    1  UNL1        0.1049
      4 N         141.6756  139.0476  161.7060 N.ar    1  UNL1       -0.2105
      5 N         141.9880  139.4306  160.2897 N.ar    1  UNL1       -0.1621
      6 C         141.6349  140.8776  160.1122 C.ar    1  UNL1        0.1236
      7 C         141.1044  141.3889  161.4188 C.ar    1  UNL1        0.0567
      8 C         141.1295  140.2579  162.4038 C.ar    1  UNL1        0.1666
      9 N         140.7257  140.1736  163.8459 N.ar    1  UNL1       -0.2120
     10 C         140.6316  142.7859  161.6924 C.ar    1  UNL1        0.0045
     11 C         141.0038  143.8999  160.7593 C.ar    1  UNL1        0.0001
     12 C         140.5310  145.2969  161.0329 C.ar    1  UNL1       -0.0001
     13 C         139.6862  145.5800  162.2396 C.ar    1  UNL1        0.0039
     14 C         139.3141  144.4661  163.1727 C.ar    1  UNL1        0.0714
     15 C         139.7868  143.0690  162.8991 C.ar    1  UNL1        0.0040
     16 C         138.4692  144.7492  164.3794 C.3     1  UNL1        0.4186
     17 F         137.6243  145.0322  165.5860 F       1  UNL1       -0.1659
     18 F         137.2368  144.4029  163.5977 F       1  UNL1       -0.1659
     19 F         139.7017  145.0954  165.1611 F       1  UNL1       -0.1659
     20 N         140.4642  138.7950  166.0325 N.pl3   1  UNL1       -0.3196
     21 H         139.9011  138.0496  166.3433 H       1  UNL1        0.1481
     22 C         141.8264  141.9494  168.9383 C.3     1  UNL1        0.0248
     23 C         140.3682  141.6185  168.8196 C.3     1  UNL1        0.0040
     24 C         139.9141  140.5670  167.8510 C.3     1  UNL1        0.0196
     25 C         140.9182  139.8464  167.0011 C.3     1  UNL1        0.0704
     26 C         142.3765  140.1773  167.1197 C.3     1  UNL1        0.0196
     27 C         142.8305  141.2288  168.0883 C.3     1  UNL1        0.0040
     28 C         143.6633  142.4200  169.8892 C.3     1  UNL1        0.0293
     29 C         142.2804  143.0009  169.9069 C.3     1  UNL1        0.0884
     30 C         140.8976  143.5817  169.9245 C.3     1  UNL1        0.0293
     31 O         142.7345  144.0524  170.8755 O.3     1  UNL1       -0.3867
     32 H         143.6754  143.9249  171.0735 H       1  UNL1        0.2102
@<TRIPOS>BOND
     1    28    29    1
     2    29    30    1
     3    29    31    1
     4    22    29    1
     5    22    23    1
     6    23    24    1
     7    24    25    1
     8    25    20    1
     9    20     1    1
    10     1     2   ar
    11     2     3   ar
    12     3     4   ar
    13     4     5   ar
    14     5     6   ar
    15     6     7   ar
    16     7    10    1
    17    10    11   ar
    18    11    12   ar
    19    12    13   ar
    20    13    14   ar
    21    14    16    1
    22    16    17    1
    23    16    18    1
    24    16    19    1
    25    14    15   ar
    26     7     8   ar
    27     8     9   ar
    28    25    26    1
    29    26    27    1
    30    27    22    1
    31     9     1   ar
    32     8     4   ar
    33    15    10   ar
    34    31    32    1
    35    20    21    1
