@<TRIPOS>MOLECULE
*****
 33 37 0 0 0
SMALL
GASTEIGER

@<TRIPOS>ATOM
      1 N         138.2065  142.1254  163.3675 N.3     1  UNL1       -0.2724
      2 C         137.6592  140.7500  163.1253 C.3     1  UNL1        0.0724
      3 C         138.0294  139.8907  164.2977 C.3     1  UNL1        0.0214
      4 C         138.5363  139.2928  165.5766 C.3     1  UNL1        0.0072
      5 C         138.8056  140.7350  165.2645 C.3     1  UNL1        0.0350
      6 C         138.9150  142.1162  164.6896 C.3     1  UNL1        0.0761
      7 C         139.5704  141.0273  166.5213 C.ar    1  UNL1       -0.0213
      8 C         140.3500  142.3027  166.6454 C.ar    1  UNL1       -0.0011
      9 C         141.1149  142.5950  167.9022 C.ar    1  UNL1        0.0369
     10 C         141.1000  141.6119  169.0350 C.ar    1  UNL1        0.1468
     11 C         140.3203  140.3364  168.9109 C.ar    1  UNL1        0.0369
     12 C         139.5555  140.0441  167.6541 C.ar    1  UNL1       -0.0011
     13 O         141.8648  141.9041  170.2919 O.3     1  UNL1       -0.4045
     14 C         143.3062  142.3121  170.2149 C.3     1  UNL1        0.5753
     15 F         144.7475  142.7201  170.1380 F       1  UNL1       -0.1328
     16 F         143.6773  140.9214  169.7926 F       1  UNL1       -0.1328
     17 F         142.9351  143.7028  170.6373 F       1  UNL1       -0.1328
     18 C         138.0693  143.3033  162.4489 C.3     1  UNL1        0.0730
     19 C         138.4149  144.6790  162.9367 C.3     1  UNL1        0.0294
     20 C         139.3506  145.5428  162.1440 C.3     1  UNL1        0.0666
     21 S         140.6922  145.0134  161.7317 S.3     1  UNL1       -0.0756
     22 C         142.7510  142.5112  163.8683 C.ar    1  UNL1        0.2029
     23 N         142.9667  143.7867  164.6277 N.ar    1  UNL1       -0.1250
     24 N         142.2217  144.8792  163.9198 N.ar    1  UNL1       -0.1220
     25 C         141.5456  144.2791  162.7228 C.ar    1  UNL1        0.1933
     26 N         141.8728  142.8155  162.6911 N.ar    1  UNL1       -0.2860
     27 C         141.4040  141.8294  161.6625 C.3     1  UNL1        0.1341
     28 C         145.8793  141.6161  163.6183 C.3     1  UNL1        0.0556
     29 C         144.7525  140.7559  164.1090 C.ar    1  UNL1        0.1001
     30 N         144.8659  139.3333  164.5708 N.ar    1  UNL1       -0.2085
     31 C         143.4981  138.8656  164.9712 C.ar    1  UNL1        0.2849
     32 O         142.5395  139.9990  164.7568 O.2     1  UNL1       -0.4283
     33 C         143.3147  141.1674  164.2239 C.ar    1  UNL1        0.1964
@<TRIPOS>BOND
     1    28    29    1
     2    29    30   ar
     3    30    31   ar
     4    31    32   ar
     5    32    33   ar
     6    33    22    1
     7    22    23   ar
     8    23    24   ar
     9    24    25   ar
    10    25    21    1
    11    21    20    1
    12    20    19    1
    13    19    18    1
    14    18     1    1
    15     1     2    1
    16     2     3    1
    17     3     4    1
    18     4     5    1
    19     5     7    1
    20     7     8   ar
    21     8     9   ar
    22     9    10   ar
    23    10    13    1
    24    13    14    1
    25    14    15    1
    26    14    16    1
    27    14    17    1
    28    10    11   ar
    29    11    12   ar
    30     5     6    1
    31    25    26   ar
    32    26    27    1
    33    33    29   ar
    34    26    22   ar
    35     6     1    1
    36     5     3    1
    37    12     7   ar
@<TRIPOS>MOLECULE
*****
 33 37 0 0 0
SMALL
GASTEIGER

@<TRIPOS>ATOM
      1 N         138.1584  140.2762  163.4261 N.3     1  UNL1       -0.2724
      2 C         138.3111  138.8948  162.8618 C.3     1  UNL1        0.0724
      3 C         139.2535  138.1341  163.7467 C.3     1  UNL1        0.0214
      4 C         140.2057  137.6407  164.7954 C.3     1  UNL1        0.0072
      5 C         139.6834  139.0454  164.8579 C.3     1  UNL1        0.0350
      6 C         139.0066  140.3693  164.6597 C.3     1  UNL1        0.0761
      7 C         140.4224  139.4322  166.1047 C.ar    1  UNL1       -0.0213
      8 C         139.6791  140.0312  167.2617 C.ar    1  UNL1       -0.0011
      9 C         140.4181  140.4180  168.5085 C.ar    1  UNL1        0.0369
     10 C         141.9003  140.2057  168.5982 C.ar    1  UNL1        0.1468
     11 C         142.6435  139.6066  167.4411 C.ar    1  UNL1        0.0369
     12 C         141.9046  139.2198  166.1944 C.ar    1  UNL1       -0.0011
     13 O         142.6393  140.5924  169.8449 O.3     1  UNL1       -0.4045
     14 C         142.8183  142.0407  170.1919 C.3     1  UNL1        0.5753
     15 F         142.9973  143.4890  170.5387 F       1  UNL1       -0.1328
     16 F         143.9028  142.1534  169.1616 F       1  UNL1       -0.1328
     17 F         141.7338  141.9280  171.2220 F       1  UNL1       -0.1328
     18 C         137.3071  141.3721  162.8567 C.3     1  UNL1        0.0730
     19 C         137.9434  142.6407  162.3710 C.3     1  UNL1        0.0294
     20 C         137.7155  143.9252  163.1112 C.3     1  UNL1        0.0666
     21 S         138.8779  144.6669  163.7019 S.3     1  UNL1       -0.0756
     22 C         142.1884  142.7349  164.3131 C.ar    1  UNL1        0.2029
     23 N         141.6074  142.7592  165.6958 N.ar    1  UNL1       -0.1250
     24 N         140.2967  143.4859  165.6352 N.ar    1  UNL1       -0.1220
     25 C         140.0674  143.9107  164.2150 C.ar    1  UNL1        0.1933
     26 N         141.2366  143.4466  163.3979 N.ar    1  UNL1       -0.2860
     27 C         141.4215  143.6572  161.9243 C.3     1  UNL1        0.1341
     28 C         142.5504  139.9903  162.5851 C.3     1  UNL1        0.0556
     29 C         143.6586  140.8474  163.1212 C.ar    1  UNL1        0.1001
     30 N         145.1278  140.5933  162.9571 N.ar    1  UNL1       -0.2085
     31 C         145.8694  141.6978  163.6499 C.ar    1  UNL1        0.2849
     32 O         144.8586  142.6345  164.2421 O.2     1  UNL1       -0.4283
     33 C         143.4922  142.1089  163.9154 C.ar    1  UNL1        0.1964
@<TRIPOS>BOND
     1    28    29    1
     2    29    30   ar
     3    30    31   ar
     4    31    32   ar
     5    32    33   ar
     6    33    22    1
     7    22    23   ar
     8    23    24   ar
     9    24    25   ar
    10    25    21    1
    11    21    20    1
    12    20    19    1
    13    19    18    1
    14    18     1    1
    15     1     2    1
    16     2     3    1
    17     3     4    1
    18     4     5    1
    19     5     7    1
    20     7     8   ar
    21     8     9   ar
    22     9    10   ar
    23    10    13    1
    24    13    14    1
    25    14    15    1
    26    14    16    1
    27    14    17    1
    28    10    11   ar
    29    11    12   ar
    30     5     6    1
    31    25    26   ar
    32    26    27    1
    33    33    29   ar
    34    26    22   ar
    35     6     1    1
    36     5     3    1
    37    12     7   ar
@<TRIPOS>MOLECULE
*****
 33 37 0 0 0
SMALL
GASTEIGER

@<TRIPOS>ATOM
      1 N         141.9313  138.2377  162.8950 N.3     1  UNL1       -0.2724
      2 C         143.3088  138.3049  162.3051 C.3     1  UNL1        0.0724
      3 C         144.1950  139.0253  163.2776 C.3     1  UNL1        0.0214
      4 C         144.8205  139.7639  164.4235 C.3     1  UNL1        0.0072
      5 C         143.3652  139.4034  164.4686 C.3     1  UNL1        0.0350
      6 C         141.9662  138.9167  164.2321 C.3     1  UNL1        0.0761
      7 C         143.0957  140.0069  165.8151 C.ar    1  UNL1       -0.0213
      8 C         143.1150  141.4970  165.9865 C.ar    1  UNL1       -0.0011
      9 C         142.8456  142.1006  167.3331 C.ar    1  UNL1        0.0369
     10 C         142.5569  141.2141  168.5082 C.ar    1  UNL1        0.1468
     11 C         142.5376  139.7240  168.3367 C.ar    1  UNL1        0.0369
     12 C         142.8071  139.1204  166.9902 C.ar    1  UNL1       -0.0011
     13 O         142.2875  141.8176  169.8547 O.3     1  UNL1       -0.4045
     14 C         141.6092  143.1516  169.9565 C.3     1  UNL1        0.5753
     15 F         140.9310  144.4856  170.0584 F       1  UNL1       -0.1328
     16 F         142.8536  143.7387  170.5540 F       1  UNL1       -0.1328
     17 F         140.3649  142.5645  169.3591 F       1  UNL1       -0.1328
     18 C         140.7299  137.6031  162.2595 C.3     1  UNL1        0.0730
     19 C         139.3783  137.7562  162.8915 C.3     1  UNL1        0.0294
     20 C         138.2324  138.2985  162.0897 C.3     1  UNL1        0.0666
     21 S         137.9892  139.7776  162.0346 S.3     1  UNL1       -0.0756
     22 C         140.9128  142.1569  162.9601 C.ar    1  UNL1        0.2029
     23 N         140.0933  142.2026  164.2157 N.ar    1  UNL1       -0.1250
     24 N         138.8985  141.3169  164.0218 N.ar    1  UNL1       -0.1220
     25 C         138.9794  140.7238  162.6464 C.ar    1  UNL1        0.1933
     26 N         140.2243  141.2430  161.9903 N.ar    1  UNL1       -0.2860
     27 C         140.6976  140.9072  160.6071 C.3     1  UNL1        0.1341
     28 C         141.3540  145.3783  163.2398 C.3     1  UNL1        0.0556
     29 C         142.3983  144.3762  162.8457 C.ar    1  UNL1        0.1001
     30 N         143.8288  144.6789  162.5109 N.ar    1  UNL1       -0.2085
     31 C         144.5101  143.3854  162.1755 C.ar    1  UNL1        0.2849
     32 O         143.5007  142.2832  162.3029 O.2     1  UNL1       -0.4283
     33 C         142.1955  142.8956  162.7171 C.ar    1  UNL1        0.1964
@<TRIPOS>BOND
     1    28    29    1
     2    29    30   ar
     3    30    31   ar
     4    31    32   ar
     5    32    33   ar
     6    33    22    1
     7    22    23   ar
     8    23    24   ar
     9    24    25   ar
    10    25    21    1
    11    21    20    1
    12    20    19    1
    13    19    18    1
    14    18     1    1
    15     1     2    1
    16     2     3    1
    17     3     4    1
    18     4     5    1
    19     5     7    1
    20     7     8   ar
    21     8     9   ar
    22     9    10   ar
    23    10    13    1
    24    13    14    1
    25    14    15    1
    26    14    16    1
    27    14    17    1
    28    10    11   ar
    29    11    12   ar
    30     5     6    1
    31    25    26   ar
    32    26    27    1
    33    33    29   ar
    34    26    22   ar
    35     6     1    1
    36     5     3    1
    37    12     7   ar
@<TRIPOS>MOLECULE
*****
 33 37 0 0 0
SMALL
GASTEIGER

@<TRIPOS>ATOM
      1 N         143.2681  143.3467  162.5535 N.3     1  UNL1       -0.2724
      2 C         144.5803  142.8806  161.9958 C.3     1  UNL1        0.0724
      3 C         145.1271  141.8287  162.9147 C.3     1  UNL1        0.0214
      4 C         145.4121  140.8306  163.9976 C.3     1  UNL1        0.0072
      5 C         144.1529  141.6447  164.0404 C.3     1  UNL1        0.0350
      6 C         143.0040  142.5828  163.8171 C.3     1  UNL1        0.0761
      7 C         143.6255  141.0510  165.3129 C.ar    1  UNL1       -0.0213
      8 C         143.5734  139.5613  165.4803 C.ar    1  UNL1       -0.0011
      9 C         143.0460  138.9675  166.7529 C.ar    1  UNL1        0.0369
     10 C         142.5708  139.8635  167.8580 C.ar    1  UNL1        0.1468
     11 C         142.6229  141.3533  167.6906 C.ar    1  UNL1        0.0369
     12 C         143.1503  141.9470  166.4180 C.ar    1  UNL1       -0.0011
     13 O         142.0434  139.2698  169.1306 O.3     1  UNL1       -0.4045
     14 C         141.0732  140.0434  169.9734 C.3     1  UNL1        0.5753
     15 F         140.1030  140.8169  170.8162 F       1  UNL1       -0.1328
     16 F         142.1774  140.3876  170.9285 F       1  UNL1       -0.1328
     17 F         139.9690  139.6991  169.0182 F       1  UNL1       -0.1328
     18 C         142.3767  144.3930  161.9530 C.3     1  UNL1        0.0730
     19 C         141.4837  145.2139  162.8354 C.3     1  UNL1        0.0294
     20 C         140.0652  145.4803  162.4271 C.3     1  UNL1        0.0666
     21 S         138.9390  144.7790  163.1271 S.3     1  UNL1       -0.0756
     22 C         139.6414  141.2460  164.5725 C.ar    1  UNL1        0.2029
     23 N         139.6238  142.0730  165.8239 N.ar    1  UNL1       -0.1250
     24 N         139.3586  143.4970  165.4347 N.ar    1  UNL1       -0.1220
     25 C         139.2122  143.5503  163.9429 C.ar    1  UNL1        0.1933
     26 N         139.3870  142.1591  163.4100 N.ar    1  UNL1       -0.2860
     27 C         139.3192  141.7524  161.9678 C.3     1  UNL1        0.1341
     28 C         138.0976  138.9710  166.3307 C.3     1  UNL1        0.0556
     29 C         139.1632  138.7202  165.3051 C.ar    1  UNL1        0.1001
     30 N         139.7062  137.3796  164.9076 N.ar    1  UNL1       -0.2085
     31 C         140.7514  137.5968  163.8539 C.ar    1  UNL1        0.2849
     32 O         140.8543  139.0715  163.6001 O.2     1  UNL1       -0.4283
     33 C         139.8727  139.7658  164.4970 C.ar    1  UNL1        0.1964
@<TRIPOS>BOND
     1    28    29    1
     2    29    30   ar
     3    30    31   ar
     4    31    32   ar
     5    32    33   ar
     6    33    22    1
     7    22    23   ar
     8    23    24   ar
     9    24    25   ar
    10    25    21    1
    11    21    20    1
    12    20    19    1
    13    19    18    1
    14    18     1    1
    15     1     2    1
    16     2     3    1
    17     3     4    1
    18     4     5    1
    19     5     7    1
    20     7     8   ar
    21     8     9   ar
    22     9    10   ar
    23    10    13    1
    24    13    14    1
    25    14    15    1
    26    14    16    1
    27    14    17    1
    28    10    11   ar
    29    11    12   ar
    30     5     6    1
    31    25    26   ar
    32    26    27    1
    33    33    29   ar
    34    26    22   ar
    35     6     1    1
    36     5     3    1
    37    12     7   ar
@<TRIPOS>MOLECULE
*****
 33 37 0 0 0
SMALL
GASTEIGER

@<TRIPOS>ATOM
      1 N         143.0521  143.3378  162.5185 N.3     1  UNL1       -0.2724
      2 C         144.3482  142.7425  162.0542 C.3     1  UNL1        0.0724
      3 C         144.7651  141.7035  163.0526 C.3     1  UNL1        0.0214
      4 C         144.9175  140.7471  164.1981 C.3     1  UNL1        0.0072
      5 C         143.7265  141.6566  164.1339 C.3     1  UNL1        0.0350
      6 C         142.6678  142.6667  163.8038 C.3     1  UNL1        0.0761
      7 C         143.0933  141.1757  165.4058 C.ar    1  UNL1       -0.0213
      8 C         143.0528  142.0710  166.6086 C.ar    1  UNL1       -0.0011
      9 C         142.4195  141.5901  167.8806 C.ar    1  UNL1        0.0369
     10 C         141.8267  140.2139  167.9496 C.ar    1  UNL1        0.1468
     11 C         141.8672  139.3186  166.7467 C.ar    1  UNL1        0.0369
     12 C         142.5005  139.7995  165.4748 C.ar    1  UNL1       -0.0011
     13 O         141.1935  139.7329  169.2215 O.3     1  UNL1       -0.4045
     14 C         139.9010  140.3333  169.6895 C.3     1  UNL1        0.5753
     15 F         138.6086  140.9337  170.1575 F       1  UNL1       -0.1328
     16 F         140.3429  140.1741  171.1141 F       1  UNL1       -0.1328
     17 F         139.4592  140.4926  168.2649 F       1  UNL1       -0.1328
     18 C         142.2764  144.4151  161.8201 C.3     1  UNL1        0.0730
     19 C         141.2497  145.2082  162.5730 C.3     1  UNL1        0.0294
     20 C         139.8282  145.2402  162.0951 C.3     1  UNL1        0.0666
     21 S         138.7291  144.7244  162.9760 S.3     1  UNL1       -0.0756
     22 C         138.2332  140.9424  163.6940 C.ar    1  UNL1        0.2029
     23 N         137.5886  141.0684  162.3454 N.ar    1  UNL1       -0.1250
     24 N         137.6959  142.5004  161.9123 N.ar    1  UNL1       -0.1220
     25 C         138.4068  143.2595  162.9932 C.ar    1  UNL1        0.1933
     26 N         138.7388  142.2966  164.0944 N.ar    1  UNL1       -0.2860
     27 C         139.4514  142.6296  165.3716 C.3     1  UNL1        0.1341
     28 C         139.6863  138.1812  162.7381 C.3     1  UNL1        0.0556
     29 C         139.0192  138.4141  164.0613 C.ar    1  UNL1        0.1001
     30 N         138.9029  137.4187  165.1774 N.ar    1  UNL1       -0.2085
     31 C         138.1631  138.0727  166.3065 C.ar    1  UNL1        0.2849
     32 O         137.8222  139.4722  165.8883 O.2     1  UNL1       -0.4283
     33 C         138.3513  139.6832  164.5007 C.ar    1  UNL1        0.1964
@<TRIPOS>BOND
     1    28    29    1
     2    29    30   ar
     3    30    31   ar
     4    31    32   ar
     5    32    33   ar
     6    33    22    1
     7    22    23   ar
     8    23    24   ar
     9    24    25   ar
    10    25    21    1
    11    21    20    1
    12    20    19    1
    13    19    18    1
    14    18     1    1
    15     1     2    1
    16     2     3    1
    17     3     4    1
    18     4     5    1
    19     5     7    1
    20     7     8   ar
    21     8     9   ar
    22     9    10   ar
    23    10    13    1
    24    13    14    1
    25    14    15    1
    26    14    16    1
    27    14    17    1
    28    10    11   ar
    29    11    12   ar
    30     5     6    1
    31    25    26   ar
    32    26    27    1
    33    33    29   ar
    34    26    22   ar
    35     6     1    1
    36     5     3    1
    37    12     7   ar
@<TRIPOS>MOLECULE
*****
 33 37 0 0 0
SMALL
GASTEIGER

@<TRIPOS>ATOM
      1 N         140.0660  137.8936  163.5907 N.3     1  UNL1       -0.2724
      2 C         141.4393  137.4958  163.1372 C.3     1  UNL1        0.0724
      3 C         142.4261  138.0046  164.1459 C.3     1  UNL1        0.0214
      4 C         143.1577  138.6235  165.2998 C.3     1  UNL1        0.0072
      5 C         141.6626  138.7168  165.2228 C.3     1  UNL1        0.0350
      6 C         140.2040  138.6483  164.8797 C.3     1  UNL1        0.0761
      7 C         141.4881  139.4909  166.4957 C.ar    1  UNL1       -0.0213
      8 C         142.5871  139.5137  167.5163 C.ar    1  UNL1       -0.0011
      9 C         142.4125  140.2879  168.7893 C.ar    1  UNL1        0.0369
     10 C         141.1390  141.0392  169.0415 C.ar    1  UNL1        0.1468
     11 C         140.0400  141.0164  168.0208 C.ar    1  UNL1        0.0369
     12 C         140.2145  140.2422  166.7480 C.ar    1  UNL1       -0.0011
     13 O         140.9644  141.8133  170.3144 O.3     1  UNL1       -0.4045
     14 C         140.6017  143.2679  170.2638 C.3     1  UNL1        0.5753
     15 F         140.2389  144.7224  170.2133 F       1  UNL1       -0.1328
     16 F         139.2204  142.9402  170.7484 F       1  UNL1       -0.1328
     17 F         141.9830  143.5955  169.7793 F       1  UNL1       -0.1328
     18 C         138.7804  137.5901  162.8800 C.3     1  UNL1        0.0730
     19 C         138.4583  138.2773  161.5862 C.3     1  UNL1        0.0294
     20 C         137.6451  139.5378  161.5886 C.3     1  UNL1        0.0666
     21 S         138.3027  140.8551  161.3015 S.3     1  UNL1       -0.0756
     22 C         141.5951  141.8092  163.1223 C.ar    1  UNL1        0.2029
     23 N         140.5739  142.4483  164.0160 N.ar    1  UNL1       -0.1250
     24 N         139.2164  142.1687  163.4428 N.ar    1  UNL1       -0.1220
     25 C         139.3984  141.3568  162.1947 C.ar    1  UNL1        0.1933
     26 N         140.8686  141.1346  161.9967 N.ar    1  UNL1       -0.2860
     27 C         141.5012  140.3718  160.8706 C.3     1  UNL1        0.1341
     28 C         143.1503  142.6907  165.8525 C.3     1  UNL1        0.0556
     29 C         143.7966  142.2446  164.5744 C.ar    1  UNL1        0.1001
     30 N         145.2713  142.1253  164.3270 N.ar    1  UNL1       -0.2085
     31 C         145.4678  141.6465  162.9192 C.ar    1  UNL1        0.2849
     32 O         144.1147  141.4698  162.2965 O.2     1  UNL1       -0.4283
     33 C         143.0818  141.8394  163.3196 C.ar    1  UNL1        0.1964
@<TRIPOS>BOND
     1    28    29    1
     2    29    30   ar
     3    30    31   ar
     4    31    32   ar
     5    32    33   ar
     6    33    22    1
     7    22    23   ar
     8    23    24   ar
     9    24    25   ar
    10    25    21    1
    11    21    20    1
    12    20    19    1
    13    19    18    1
    14    18     1    1
    15     1     2    1
    16     2     3    1
    17     3     4    1
    18     4     5    1
    19     5     7    1
    20     7     8   ar
    21     8     9   ar
    22     9    10   ar
    23    10    13    1
    24    13    14    1
    25    14    15    1
    26    14    16    1
    27    14    17    1
    28    10    11   ar
    29    11    12   ar
    30     5     6    1
    31    25    26   ar
    32    26    27    1
    33    33    29   ar
    34    26    22   ar
    35     6     1    1
    36     5     3    1
    37    12     7   ar
@<TRIPOS>MOLECULE
*****
 33 37 0 0 0
SMALL
GASTEIGER

@<TRIPOS>ATOM
      1 N         140.9511  138.0390  162.7941 N.3     1  UNL1       -0.2724
      2 C         139.5086  137.6371  162.7079 C.3     1  UNL1        0.0724
      3 C         138.8502  137.9908  164.0084 C.3     1  UNL1        0.0214
      4 C         138.4772  138.4485  165.3873 C.3     1  UNL1        0.0072
      5 C         139.8859  138.6113  164.8985 C.3     1  UNL1        0.0350
      6 C         141.1843  138.6411  164.1481 C.3     1  UNL1        0.0761
      7 C         140.4136  139.2474  166.1503 C.ar    1  UNL1       -0.0213
      8 C         139.4695  139.9035  167.1136 C.ar    1  UNL1       -0.0011
      9 C         139.9972  140.5396  168.3654 C.ar    1  UNL1        0.0369
     10 C         141.4691  140.5197  168.6538 C.ar    1  UNL1        0.1468
     11 C         142.4133  139.8636  167.6903 C.ar    1  UNL1        0.0369
     12 C         141.8856  139.2275  166.4386 C.ar    1  UNL1       -0.0011
     13 O         141.9968  141.1559  169.9055 O.3     1  UNL1       -0.4045
     14 C         143.3373  141.8289  169.8970 C.3     1  UNL1        0.5753
     15 F         144.6778  142.5019  169.8885 F       1  UNL1       -0.1328
     16 F         143.9308  140.6559  170.6194 F       1  UNL1       -0.1328
     17 F         142.7438  143.0019  169.1746 F       1  UNL1       -0.1328
     18 C         141.9799  137.8687  161.7159 C.3     1  UNL1        0.0730
     19 C         143.4087  138.2435  161.9765 C.3     1  UNL1        0.0294
     20 C         144.0763  139.2876  161.1313 C.3     1  UNL1        0.0666
     21 S         144.3920  140.6338  161.7128 S.3     1  UNL1       -0.0756
     22 C         141.4824  142.2804  163.6845 C.ar    1  UNL1        0.2029
     23 N         142.5361  142.1857  164.7479 N.ar    1  UNL1       -0.1250
     24 N         143.7542  141.5574  164.1387 N.ar    1  UNL1       -0.1220
     25 C         143.4535  141.2637  162.6988 C.ar    1  UNL1        0.1933
     26 N         142.0493  141.7106  162.4182 N.ar    1  UNL1       -0.2860
     27 C         141.3373  141.6059  161.1021 C.3     1  UNL1        0.1341
     28 C         140.5231  145.2861  162.8507 C.3     1  UNL1        0.0556
     29 C         139.6628  144.2271  163.4740 C.ar    1  UNL1        0.1001
     30 N         138.2105  144.3639  163.8235 N.ar    1  UNL1       -0.2085
     31 C         137.7539  143.0668  164.4228 C.ar    1  UNL1        0.2849
     32 O         138.9239  142.1285  164.4437 O.2     1  UNL1       -0.4283
     33 C         140.1037  142.8456  163.8573 C.ar    1  UNL1        0.1964
@<TRIPOS>BOND
     1    28    29    1
     2    29    30   ar
     3    30    31   ar
     4    31    32   ar
     5    32    33   ar
     6    33    22    1
     7    22    23   ar
     8    23    24   ar
     9    24    25   ar
    10    25    21    1
    11    21    20    1
    12    20    19    1
    13    19    18    1
    14    18     1    1
    15     1     2    1
    16     2     3    1
    17     3     4    1
    18     4     5    1
    19     5     7    1
    20     7     8   ar
    21     8     9   ar
    22     9    10   ar
    23    10    13    1
    24    13    14    1
    25    14    15    1
    26    14    16    1
    27    14    17    1
    28    10    11   ar
    29    11    12   ar
    30     5     6    1
    31    25    26   ar
    32    26    27    1
    33    33    29   ar
    34    26    22   ar
    35     6     1    1
    36     5     3    1
    37    12     7   ar
@<TRIPOS>MOLECULE
*****
 33 37 0 0 0
SMALL
GASTEIGER

@<TRIPOS>ATOM
      1 N         138.6176  143.8461  162.9898 N.3     1  UNL1       -0.2724
      2 C         137.9471  142.9205  162.0184 C.3     1  UNL1        0.0724
      3 C         137.8466  141.5684  162.6602 C.3     1  UNL1        0.0214
      4 C         137.8881  140.3570  163.5437 C.3     1  UNL1        0.0072
      5 C         138.4550  141.6584  164.0283 C.3     1  UNL1        0.0350
      6 C         138.9314  143.0661  164.2320 C.3     1  UNL1        0.0761
      7 C         138.8874  141.1505  165.3718 C.ar    1  UNL1       -0.0213
      8 C         139.7932  141.9813  166.2317 C.ar    1  UNL1       -0.0011
      9 C         140.2256  141.4734  167.5753 C.ar    1  UNL1        0.0369
     10 C         139.7522  140.1347  168.0589 C.ar    1  UNL1        0.1468
     11 C         138.8463  139.3040  167.1990 C.ar    1  UNL1        0.0369
     12 C         138.4139  139.8119  165.8555 C.ar    1  UNL1       -0.0011
     13 O         140.1846  139.6268  169.4024 O.3     1  UNL1       -0.4045
     14 C         141.4931  140.0705  169.9864 C.3     1  UNL1        0.5753
     15 F         142.8015  140.5141  170.5703 F       1  UNL1       -0.1328
     16 F         140.7777  141.1063  170.8022 F       1  UNL1       -0.1328
     17 F         142.2083  139.0347  169.1706 F       1  UNL1       -0.1328
     18 C         138.9209  145.2970  162.7596 C.3     1  UNL1        0.0730
     19 C         140.1908  145.6972  162.0689 C.3     1  UNL1        0.0294
     20 C         140.6911  144.9024  160.8993 C.3     1  UNL1        0.0666
     21 S         141.9440  144.0875  161.0272 S.3     1  UNL1       -0.0756
     22 C         141.8610  140.8953  163.2335 C.ar    1  UNL1        0.2029
     23 N         142.5233  141.8712  164.1604 N.ar    1  UNL1       -0.1250
     24 N         142.6349  143.1857  163.4468 N.ar    1  UNL1       -0.1220
     25 C         142.0417  143.0223  162.0788 C.ar    1  UNL1        0.1933
     26 N         141.5635  141.6067  161.9470 N.ar    1  UNL1       -0.2860
     27 C         140.9034  141.0078  160.7405 C.3     1  UNL1        0.1341
     28 C         142.7527  139.2705  165.9195 C.3     1  UNL1        0.0556
     29 C         141.9607  138.7131  164.7740 C.ar    1  UNL1        0.1001
     30 N         141.4396  137.3110  164.6621 N.ar    1  UNL1       -0.2085
     31 C         140.7076  137.1913  163.3583 C.ar    1  UNL1        0.2849
     32 O         140.7764  138.5194  162.6645 O.2     1  UNL1       -0.4283
     33 C         141.5509  139.4599  163.5395 C.ar    1  UNL1        0.1964
@<TRIPOS>BOND
     1    28    29    1
     2    29    30   ar
     3    30    31   ar
     4    31    32   ar
     5    32    33   ar
     6    33    22    1
     7    22    23   ar
     8    23    24   ar
     9    24    25   ar
    10    25    21    1
    11    21    20    1
    12    20    19    1
    13    19    18    1
    14    18     1    1
    15     1     2    1
    16     2     3    1
    17     3     4    1
    18     4     5    1
    19     5     7    1
    20     7     8   ar
    21     8     9   ar
    22     9    10   ar
    23    10    13    1
    24    13    14    1
    25    14    15    1
    26    14    16    1
    27    14    17    1
    28    10    11   ar
    29    11    12   ar
    30     5     6    1
    31    25    26   ar
    32    26    27    1
    33    33    29   ar
    34    26    22   ar
    35     6     1    1
    36     5     3    1
    37    12     7   ar
@<TRIPOS>MOLECULE
*****
 33 37 0 0 0
SMALL
GASTEIGER

@<TRIPOS>ATOM
      1 N         144.3541  140.4468  162.1870 N.3     1  UNL1       -0.2724
      2 C         145.0347  141.7802  162.0939 C.3     1  UNL1        0.0724
      3 C         144.8803  142.4728  163.4155 C.3     1  UNL1        0.0214
      4 C         144.5700  142.9054  164.8178 C.3     1  UNL1        0.0072
      5 C         144.1042  141.5674  164.3254 C.3     1  UNL1        0.0350
      6 C         143.7790  140.3152  163.5661 C.3     1  UNL1        0.0761
      7 C         143.4317  141.1561  165.6015 C.ar    1  UNL1       -0.0213
      8 C         143.1317  142.1807  166.6551 C.ar    1  UNL1       -0.0011
      9 C         142.4592  141.7694  167.9314 C.ar    1  UNL1        0.0369
     10 C         142.0867  140.3335  168.1539 C.ar    1  UNL1        0.1468
     11 C         142.3868  139.3088  167.1002 C.ar    1  UNL1        0.0369
     12 C         143.0593  139.7201  165.8240 C.ar    1  UNL1       -0.0011
     13 O         141.4142  139.9222  169.4300 O.3     1  UNL1       -0.4045
     14 C         140.0452  140.4405  169.7571 C.3     1  UNL1        0.5753
     15 F         138.6761  140.9587  170.0841 F       1  UNL1       -0.1328
     16 F         139.5295  139.8989  168.4567 F       1  UNL1       -0.1328
     17 F         140.5609  140.9820  171.0574 F       1  UNL1       -0.1328
     18 C         144.2643  139.4244  161.0930 C.3     1  UNL1        0.0730
     19 C         143.8967  138.0073  161.4192 C.3     1  UNL1        0.0294
     20 C         142.4536  137.6049  161.4938 C.3     1  UNL1        0.0666
     21 S         141.4095  138.4240  160.7945 S.3     1  UNL1       -0.0756
     22 C         139.0554  140.8694  162.6768 C.ar    1  UNL1        0.2029
     23 N         138.3897  139.5543  162.9551 N.ar    1  UNL1       -0.1250
     24 N         139.1905  138.4783  162.2839 N.ar    1  UNL1       -0.1220
     25 C         140.3511  139.1282  161.5907 C.ar    1  UNL1        0.1933
     26 N         140.2676  140.6061  161.8336 N.ar    1  UNL1       -0.2860
     27 C         141.2278  141.6392  161.3229 C.3     1  UNL1        0.1341
     28 C         139.5641  142.1260  165.6453 C.3     1  UNL1        0.0556
     29 C         138.8242  142.7897  164.5219 C.ar    1  UNL1        0.1001
     30 N         138.1883  144.1475  164.5657 N.ar    1  UNL1       -0.2085
     31 C         137.5614  144.4091  163.2283 C.ar    1  UNL1        0.2849
     32 O         137.8099  143.2130  162.3580 O.2     1  UNL1       -0.4283
     33 C         138.5904  142.2122  163.1575 C.ar    1  UNL1        0.1964
@<TRIPOS>BOND
     1    28    29    1
     2    29    30   ar
     3    30    31   ar
     4    31    32   ar
     5    32    33   ar
     6    33    22    1
     7    22    23   ar
     8    23    24   ar
     9    24    25   ar
    10    25    21    1
    11    21    20    1
    12    20    19    1
    13    19    18    1
    14    18     1    1
    15     1     2    1
    16     2     3    1
    17     3     4    1
    18     4     5    1
    19     5     7    1
    20     7     8   ar
    21     8     9   ar
    22     9    10   ar
    23    10    13    1
    24    13    14    1
    25    14    15    1
    26    14    16    1
    27    14    17    1
    28    10    11   ar
    29    11    12   ar
    30     5     6    1
    31    25    26   ar
    32    26    27    1
    33    33    29   ar
    34    26    22   ar
    35     6     1    1
    36     5     3    1
    37    12     7   ar
