@<TRIPOS>MOLECULE
*****
 32 34 0 0 0
SMALL
GASTEIGER

@<TRIPOS>ATOM
      1 C         139.7002  138.5154  164.2855 C.ar    1  UNL1        0.1040
      2 C         138.6884  138.4136  165.3881 C.ar    1  UNL1        0.1091
      3 N         138.8546  139.2288  166.6362 N.ar    1  UNL1       -0.2119
      4 C         140.0326  140.1458  166.7818 C.ar    1  UNL1        0.2214
      5 N         141.0445  140.2476  165.6792 N.ar    1  UNL1       -0.1984
      6 C         140.8783  139.4324  164.4311 C.ar    1  UNL1        0.1409
      7 N         140.1988  140.9610  168.0299 N.pl3   1  UNL1       -0.2768
      8 C         140.2646  142.4571  167.9453 C.3     1  UNL1        0.0937
      9 C         140.4308  143.2723  169.1934 C.3     1  UNL1        0.0229
     10 C         140.5312  142.5914  170.5262 C.3     1  UNL1        0.0190
     11 C         140.4653  141.0953  170.6108 C.3     1  UNL1        0.0710
     12 N         140.5657  140.4142  171.9435 N.3     1  UNL1       -0.3208
     13 C         140.2992  140.2801  169.3626 C.3     1  UNL1        0.1090
     14 H         140.5026  139.4044  171.8149 H       1  UNL1        0.1189
     15 H         139.8038  140.7288  172.5443 H       1  UNL1        0.1189
     16 N         138.1824  137.5717  162.3999 N.am    1  UNL1       -0.3252
     17 C         139.5341  137.7002  163.0374 C.2     1  UNL1        0.2470
     18 O         140.7196  137.0136  162.4266 O.2     1  UNL1       -0.2702
     19 H         138.0733  137.0367  161.5807 H       1  UNL1        0.1453
     20 H         137.4042  138.0224  162.8007 H       1  UNL1        0.1453
     21 N         141.8903  139.5343  163.3285 N.pl3   1  UNL1       -0.2977
     22 H         141.7556  139.0375  162.4893 H       1  UNL1        0.1536
     23 C         143.1074  140.3930  163.5045 C.ar    1  UNL1        0.0493
     24 C         144.4178  139.7684  163.8824 C.ar    1  UNL1        0.0146
     25 C         145.6349  140.6271  164.0585 C.ar    1  UNL1        0.0012
     26 C         145.5418  142.1106  163.8567 C.ar    1  UNL1        0.0039
     27 C         144.2315  142.7352  163.4788 C.ar    1  UNL1        0.0726
     28 C         143.0142  141.8765  163.3027 C.ar    1  UNL1        0.0185
     29 C         144.1383  144.2187  163.2770 C.3     1  UNL1        0.4186
     30 F         144.0451  145.7021  163.0752 F       1  UNL1       -0.1659
     31 F         143.8597  144.0029  161.8190 F       1  UNL1       -0.1659
     32 F         144.4169  144.4345  164.7350 F       1  UNL1       -0.1659
@<TRIPOS>BOND
     1    16    17   am
     2    17    18    2
     3    17     1    1
     4     1     2   ar
     5     2     3   ar
     6     3     4   ar
     7     4     7    1
     8     7     8    1
     9     8     9    1
    10     9    10    1
    11    10    11    1
    12    11    12    1
    13    11    13    1
    14     4     5   ar
    15     5     6   ar
    16     6    21    1
    17    21    23    1
    18    23    24   ar
    19    24    25   ar
    20    25    26   ar
    21    26    27   ar
    22    27    29    1
    23    29    30    1
    24    29    31    1
    25    29    32    1
    26    27    28   ar
    27     6     1   ar
    28    28    23   ar
    29    13     7    1
    30    16    19    1
    31    16    20    1
    32    12    14    1
    33    12    15    1
    34    21    22    1
@<TRIPOS>MOLECULE
*****
 32 34 0 0 0
SMALL
GASTEIGER

@<TRIPOS>ATOM
      1 C         138.4445  140.4667  164.4938 C.ar    1  UNL1        0.1040
      2 C         138.1631  139.4201  165.5308 C.ar    1  UNL1        0.1091
      3 N         138.8931  139.4469  166.8409 N.ar    1  UNL1       -0.2119
      4 C         139.9046  140.5203  167.1140 C.ar    1  UNL1        0.2214
      5 N         140.1860  141.5669  166.0770 N.ar    1  UNL1       -0.1984
      6 C         139.4560  141.5401  164.7669 C.ar    1  UNL1        0.1409
      7 N         140.6346  140.5472  168.4241 N.pl3   1  UNL1       -0.2768
      8 C         141.8813  139.7330  168.6048 C.3     1  UNL1        0.0937
      9 C         142.6114  139.7599  169.9149 C.3     1  UNL1        0.0229
     10 C         142.0946  140.6008  171.0443 C.3     1  UNL1        0.0190
     11 C         140.8478  141.4150  170.8636 C.3     1  UNL1        0.0710
     12 N         140.3310  142.2560  171.9931 N.3     1  UNL1       -0.3208
     13 C         140.1178  141.3881  169.5535 C.3     1  UNL1        0.1090
     14 H         139.4822  142.7381  171.6973 H       1  UNL1        0.1189
     15 H         141.0377  142.9427  172.2567 H       1  UNL1        0.1189
     16 N         137.7205  139.1948  162.3472 N.am    1  UNL1       -0.3252
     17 C         137.7145  140.4398  163.1837 C.2     1  UNL1        0.2470
     18 O         136.9786  141.6580  162.7101 O.2     1  UNL1       -0.2702
     19 H         137.2413  139.1772  161.4873 H       1  UNL1        0.1453
     20 H         138.2035  138.3952  162.6580 H       1  UNL1        0.1453
     21 N         139.7375  142.5868  163.7299 N.pl3   1  UNL1       -0.2977
     22 H         139.0556  142.8067  163.0547 H       1  UNL1        0.1536
     23 C         141.0579  143.2983  163.7217 C.ar    1  UNL1        0.0493
     24 C         141.1058  144.7920  163.8511 C.ar    1  UNL1        0.0146
     25 C         142.4262  145.5036  163.8429 C.ar    1  UNL1        0.0012
     26 C         143.6988  144.7216  163.7052 C.ar    1  UNL1        0.0039
     27 C         143.6510  143.2280  163.5758 C.ar    1  UNL1        0.0726
     28 C         142.3305  142.5163  163.5840 C.ar    1  UNL1        0.0185
     29 C         144.9235  142.4459  163.4381 C.3     1  UNL1        0.4186
     30 F         146.1961  141.6639  163.3004 F       1  UNL1       -0.1659
     31 F         144.5329  142.0557  162.0434 F       1  UNL1       -0.1659
     32 F         145.3142  142.8362  164.8328 F       1  UNL1       -0.1659
@<TRIPOS>BOND
     1    16    17   am
     2    17    18    2
     3    17     1    1
     4     1     2   ar
     5     2     3   ar
     6     3     4   ar
     7     4     7    1
     8     7     8    1
     9     8     9    1
    10     9    10    1
    11    10    11    1
    12    11    12    1
    13    11    13    1
    14     4     5   ar
    15     5     6   ar
    16     6    21    1
    17    21    23    1
    18    23    24   ar
    19    24    25   ar
    20    25    26   ar
    21    26    27   ar
    22    27    29    1
    23    29    30    1
    24    29    31    1
    25    29    32    1
    26    27    28   ar
    27     6     1   ar
    28    28    23   ar
    29    13     7    1
    30    16    19    1
    31    16    20    1
    32    12    14    1
    33    12    15    1
    34    21    22    1
@<TRIPOS>MOLECULE
*****
 32 34 0 0 0
SMALL
GASTEIGER

@<TRIPOS>ATOM
      1 C         141.3333  138.4189  164.3245 C.ar    1  UNL1        0.1040
      2 C         142.5727  138.1769  165.1340 C.ar    1  UNL1        0.1091
      3 N         142.7726  138.8987  166.4336 N.ar    1  UNL1       -0.2119
      4 C         141.7331  139.8626  166.9237 C.ar    1  UNL1        0.2214
      5 N         140.4937  140.1046  166.1143 N.ar    1  UNL1       -0.1984
      6 C         140.2938  139.3828  164.8147 C.ar    1  UNL1        0.1409
      7 N         141.9330  140.5844  168.2234 N.pl3   1  UNL1       -0.2768
      8 C         142.8777  141.7471  168.2979 C.3     1  UNL1        0.0937
      9 C         143.0776  142.4689  169.5975 C.3     1  UNL1        0.0229
     10 C         142.3327  142.0281  170.8226 C.3     1  UNL1        0.0190
     11 C         141.3880  140.8654  170.7480 C.3     1  UNL1        0.0710
     12 N         140.6431  140.4245  171.9731 N.3     1  UNL1       -0.3208
     13 C         141.1881  140.1436  169.4484 C.3     1  UNL1        0.1090
     14 H         140.0505  139.6270  171.7421 H       1  UNL1        0.1189
     15 H         140.0632  141.1917  172.3130 H       1  UNL1        0.1189
     16 N         142.3078  137.4147  162.1355 N.am    1  UNL1       -0.3252
     17 C         141.1334  137.6971  163.0249 C.2     1  UNL1        0.2470
     18 O         139.7592  137.2576  162.6147 O.2     1  UNL1       -0.2702
     19 H         142.1766  136.9410  161.2825 H       1  UNL1        0.1453
     20 H         143.2098  137.7032  162.4047 H       1  UNL1        0.1453
     21 N         139.0543  139.6248  164.0052 N.pl3   1  UNL1       -0.2977
     22 H         138.4833  138.8676  163.7410 H       1  UNL1        0.1536
     23 C         138.6849  141.0205  163.5984 C.ar    1  UNL1        0.0493
     24 C         138.3069  141.3121  162.1764 C.ar    1  UNL1        0.0146
     25 C         137.9375  142.7078  161.7696 C.ar    1  UNL1        0.0012
     26 C         137.9460  143.8120  162.7848 C.ar    1  UNL1        0.0039
     27 C         138.3240  143.5205  164.2068 C.ar    1  UNL1        0.0726
     28 C         138.6934  142.1247  164.6136 C.ar    1  UNL1        0.0185
     29 C         138.3325  144.6247  165.2220 C.3     1  UNL1        0.4186
     30 F         138.3410  145.7289  166.2372 F       1  UNL1       -0.1659
     31 F         136.8532  144.4631  165.4102 F       1  UNL1       -0.1659
     32 F         139.8119  144.7863  165.0338 F       1  UNL1       -0.1659
@<TRIPOS>BOND
     1    16    17   am
     2    17    18    2
     3    17     1    1
     4     1     2   ar
     5     2     3   ar
     6     3     4   ar
     7     4     7    1
     8     7     8    1
     9     8     9    1
    10     9    10    1
    11    10    11    1
    12    11    12    1
    13    11    13    1
    14     4     5   ar
    15     5     6   ar
    16     6    21    1
    17    21    23    1
    18    23    24   ar
    19    24    25   ar
    20    25    26   ar
    21    26    27   ar
    22    27    29    1
    23    29    30    1
    24    29    31    1
    25    29    32    1
    26    27    28   ar
    27     6     1   ar
    28    28    23   ar
    29    13     7    1
    30    16    19    1
    31    16    20    1
    32    12    14    1
    33    12    15    1
    34    21    22    1
@<TRIPOS>MOLECULE
*****
 32 34 0 0 0
SMALL
GASTEIGER

@<TRIPOS>ATOM
      1 C         143.9890  140.5343  164.1508 C.ar    1  UNL1        0.1040
      2 C         143.8586  139.2443  164.9049 C.ar    1  UNL1        0.1091
      3 N         143.0845  139.2011  166.1890 N.ar    1  UNL1       -0.2119
      4 C         142.4407  140.4480  166.7189 C.ar    1  UNL1        0.2214
      5 N         142.5711  141.7380  165.9648 N.ar    1  UNL1       -0.1984
      6 C         143.3453  141.7812  164.6807 C.ar    1  UNL1        0.1409
      7 N         141.6666  140.4048  168.0030 N.pl3   1  UNL1       -0.2768
      8 C         140.1762  140.2385  167.9750 C.3     1  UNL1        0.0937
      9 C         139.4020  140.1953  169.2590 C.3     1  UNL1        0.0229
     10 C         140.1183  140.3184  170.5711 C.3     1  UNL1        0.0190
     11 C         141.6088  140.4848  170.5992 C.3     1  UNL1        0.0710
     12 N         142.3252  140.6079  171.9113 N.3     1  UNL1       -0.3208
     13 C         142.3829  140.5279  169.3151 C.3     1  UNL1        0.1090
     14 H         143.3258  140.7133  171.7438 H       1  UNL1        0.1189
     15 H         142.1603  139.7697  172.4687 H       1  UNL1        0.1189
     16 N         144.5459  139.5213  161.8241 N.am    1  UNL1       -0.3252
     17 C         144.7631  140.5775  162.8667 C.2     1  UNL1        0.2470
     18 O         145.7545  141.6770  162.6252 O.2     1  UNL1       -0.2702
     19 H         145.0540  139.5496  160.9813 H       1  UNL1        0.1453
     20 H         143.8952  138.7996  161.9825 H       1  UNL1        0.1453
     21 N         143.4757  143.0713  163.9266 N.pl3   1  UNL1       -0.2977
     22 H         144.3591  143.4930  163.8215 H       1  UNL1        0.1536
     23 C         142.2601  143.7190  163.3326 C.ar    1  UNL1        0.0493
     24 C         142.3294  144.3323  161.9654 C.ar    1  UNL1        0.0146
     25 C         141.1139  144.9800  161.3714 C.ar    1  UNL1        0.0012
     26 C         139.8289  145.0144  162.1445 C.ar    1  UNL1        0.0039
     27 C         139.7595  144.4011  163.5116 C.ar    1  UNL1        0.0726
     28 C         140.9751  143.7534  164.1057 C.ar    1  UNL1        0.0185
     29 C         138.4746  144.4355  164.2848 C.3     1  UNL1        0.4186
     30 F         137.1896  144.4699  165.0579 F       1  UNL1       -0.1659
     31 F         137.8053  143.6337  163.2081 F       1  UNL1       -0.1659
     32 F         139.1438  145.2373  165.3614 F       1  UNL1       -0.1659
@<TRIPOS>BOND
     1    16    17   am
     2    17    18    2
     3    17     1    1
     4     1     2   ar
     5     2     3   ar
     6     3     4   ar
     7     4     7    1
     8     7     8    1
     9     8     9    1
    10     9    10    1
    11    10    11    1
    12    11    12    1
    13    11    13    1
    14     4     5   ar
    15     5     6   ar
    16     6    21    1
    17    21    23    1
    18    23    24   ar
    19    24    25   ar
    20    25    26   ar
    21    26    27   ar
    22    27    29    1
    23    29    30    1
    24    29    31    1
    25    29    32    1
    26    27    28   ar
    27     6     1   ar
    28    28    23   ar
    29    13     7    1
    30    16    19    1
    31    16    20    1
    32    12    14    1
    33    12    15    1
    34    21    22    1
@<TRIPOS>MOLECULE
*****
 32 34 0 0 0
SMALL
GASTEIGER

@<TRIPOS>ATOM
      1 C         143.1335  139.3576  164.0864 C.ar    1  UNL1        0.1040
      2 C         143.5075  138.4801  165.2439 C.ar    1  UNL1        0.1091
      3 N         143.1934  138.9129  166.6454 N.ar    1  UNL1       -0.2119
      4 C         142.5053  140.2232  166.8892 C.ar    1  UNL1        0.2214
      5 N         142.1314  141.1008  165.7317 N.ar    1  UNL1       -0.1984
      6 C         142.4455  140.6680  164.3302 C.ar    1  UNL1        0.1409
      7 N         142.1912  140.6560  168.2907 N.pl3   1  UNL1       -0.2768
      8 C         142.8556  141.8710  168.8671 C.3     1  UNL1        0.0937
      9 C         142.5415  142.3038  170.2685 C.3     1  UNL1        0.0229
     10 C         141.5631  141.5216  171.0936 C.3     1  UNL1        0.0190
     11 C         140.8987  140.3065  170.5172 C.3     1  UNL1        0.0710
     12 N         139.9202  139.5242  171.3422 N.3     1  UNL1       -0.3208
     13 C         141.2128  139.8738  169.1157 C.3     1  UNL1        0.1090
     14 H         139.5688  138.7370  170.7971 H       1  UNL1        0.1189
     15 H         139.1421  140.1272  171.6092 H       1  UNL1        0.1189
     16 N         142.8760  137.6457  162.1491 N.am    1  UNL1       -0.3252
     17 C         143.4476  138.9248  162.6849 C.2     1  UNL1        0.2470
     18 O         144.3333  139.7711  161.8193 O.2     1  UNL1       -0.2702
     19 H         143.0822  137.3617  161.2293 H       1  UNL1        0.1453
     20 H         142.2947  137.0902  162.7172 H       1  UNL1        0.1453
     21 N         142.0715  141.5456  163.1726 N.pl3   1  UNL1       -0.2977
     22 H         142.7301  141.7356  162.4660 H       1  UNL1        0.1536
     23 C         140.6940  142.1338  163.0917 C.ar    1  UNL1        0.0493
     24 C         139.7860  141.7638  161.9565 C.ar    1  UNL1        0.0146
     25 C         138.4085  142.3520  161.8756 C.ar    1  UNL1        0.0012
     26 C         137.9390  143.3101  162.9299 C.ar    1  UNL1        0.0039
     27 C         138.8469  143.6800  164.0651 C.ar    1  UNL1        0.0726
     28 C         140.2245  143.0919  164.1460 C.ar    1  UNL1        0.0185
     29 C         138.3774  144.6382  165.1194 C.3     1  UNL1        0.4186
     30 F         137.9078  145.5963  166.1737 F       1  UNL1       -0.1659
     31 F         139.7436  145.2556  165.1667 F       1  UNL1       -0.1659
     32 F         137.0112  144.0207  165.0721 F       1  UNL1       -0.1659
@<TRIPOS>BOND
     1    16    17   am
     2    17    18    2
     3    17     1    1
     4     1     2   ar
     5     2     3   ar
     6     3     4   ar
     7     4     7    1
     8     7     8    1
     9     8     9    1
    10     9    10    1
    11    10    11    1
    12    11    12    1
    13    11    13    1
    14     4     5   ar
    15     5     6   ar
    16     6    21    1
    17    21    23    1
    18    23    24   ar
    19    24    25   ar
    20    25    26   ar
    21    26    27   ar
    22    27    29    1
    23    29    30    1
    24    29    31    1
    25    29    32    1
    26    27    28   ar
    27     6     1   ar
    28    28    23   ar
    29    13     7    1
    30    16    19    1
    31    16    20    1
    32    12    14    1
    33    12    15    1
    34    21    22    1
@<TRIPOS>MOLECULE
*****
 32 34 0 0 0
SMALL
GASTEIGER

@<TRIPOS>ATOM
      1 C         144.2922  141.9545  164.5098 C.ar    1  UNL1        0.1040
      2 C         143.8381  143.0435  165.4359 C.ar    1  UNL1        0.1091
      3 N         143.0167  142.7060  166.6448 N.ar    1  UNL1       -0.2119
      4 C         142.6493  141.2795  166.9275 C.ar    1  UNL1        0.2214
      5 N         143.1034  140.1905  166.0014 N.ar    1  UNL1       -0.1984
      6 C         143.9248  140.5280  164.7925 C.ar    1  UNL1        0.1409
      7 N         141.8278  140.9420  168.1364 N.pl3   1  UNL1       -0.2768
      8 C         140.3903  140.5438  167.9790 C.3     1  UNL1        0.0937
      9 C         139.5688  140.2063  169.1878 C.3     1  UNL1        0.0229
     10 C         140.1850  140.2670  170.5541 C.3     1  UNL1        0.0190
     11 C         141.6225  140.6652  170.7114 C.3     1  UNL1        0.0710
     12 N         142.2387  140.7259  172.0777 N.3     1  UNL1       -0.3208
     13 C         142.4440  141.0027  169.5026 C.3     1  UNL1        0.1090
     14 H         143.2145  141.0120  171.9982 H       1  UNL1        0.1189
     15 H         142.1887  139.8055  172.5145 H       1  UNL1        0.1189
     16 N         144.7412  143.4662  162.4451 N.am    1  UNL1       -0.3252
     17 C         145.1136  142.2920  163.3009 C.2     1  UNL1        0.2470
     18 O         146.3074  141.4553  162.9479 O.2     1  UNL1       -0.2702
     19 H         145.2804  143.6877  161.6517 H       1  UNL1        0.1453
     20 H         143.9577  144.0154  162.6768 H       1  UNL1        0.1453
     21 N         144.3789  139.4388  163.8663 N.pl3   1  UNL1       -0.2977
     22 H         145.2651  139.0275  163.9873 H       1  UNL1        0.1536
     23 C         143.4826  138.9764  162.7560 C.ar    1  UNL1        0.0493
     24 C         144.0133  138.8750  161.3567 C.ar    1  UNL1        0.0146
     25 C         143.1171  138.4126  160.2463 C.ar    1  UNL1        0.0012
     26 C         141.6901  138.0516  160.5353 C.ar    1  UNL1        0.0039
     27 C         141.1594  138.1530  161.9345 C.ar    1  UNL1        0.0726
     28 C         142.0557  138.6154  163.0450 C.ar    1  UNL1        0.0185
     29 C         139.7325  137.7920  162.2235 C.3     1  UNL1        0.4186
     30 F         138.3055  137.4310  162.5124 F       1  UNL1       -0.1659
     31 F         140.0538  137.6916  163.6852 F       1  UNL1       -0.1659
     32 F         139.4111  137.8923  160.7617 F       1  UNL1       -0.1659
@<TRIPOS>BOND
     1    16    17   am
     2    17    18    2
     3    17     1    1
     4     1     2   ar
     5     2     3   ar
     6     3     4   ar
     7     4     7    1
     8     7     8    1
     9     8     9    1
    10     9    10    1
    11    10    11    1
    12    11    12    1
    13    11    13    1
    14     4     5   ar
    15     5     6   ar
    16     6    21    1
    17    21    23    1
    18    23    24   ar
    19    24    25   ar
    20    25    26   ar
    21    26    27   ar
    22    27    29    1
    23    29    30    1
    24    29    31    1
    25    29    32    1
    26    27    28   ar
    27     6     1   ar
    28    28    23   ar
    29    13     7    1
    30    16    19    1
    31    16    20    1
    32    12    14    1
    33    12    15    1
    34    21    22    1
@<TRIPOS>MOLECULE
*****
 32 34 0 0 0
SMALL
GASTEIGER

@<TRIPOS>ATOM
      1 C         138.9856  139.4384  164.5949 C.ar    1  UNL1        0.1040
      2 C         138.2567  139.0224  165.8381 C.ar    1  UNL1        0.1091
      3 N         138.7986  139.3964  167.1859 N.ar    1  UNL1       -0.2119
      4 C         140.0694  140.1864  167.2904 C.ar    1  UNL1        0.2214
      5 N         140.7982  140.6024  166.0472 N.ar    1  UNL1       -0.1984
      6 C         140.2564  140.2284  164.6994 C.ar    1  UNL1        0.1409
      7 N         140.6113  140.5605  168.6382 N.pl3   1  UNL1       -0.2768
      8 C         139.9371  141.6283  169.4476 C.3     1  UNL1        0.0937
      9 C         140.4789  142.0023  170.7954 C.3     1  UNL1        0.0229
     10 C         141.6950  141.3086  171.3337 C.3     1  UNL1        0.0190
     11 C         142.3692  140.2408  170.5242 C.3     1  UNL1        0.0710
     12 N         143.5854  139.5470  171.0625 N.3     1  UNL1       -0.3208
     13 C         141.8273  139.8667  169.1765 C.3     1  UNL1        0.1090
     14 H         143.9100  138.8560  170.3861 H       1  UNL1        0.1189
     15 H         143.3509  139.0807  171.9389 H       1  UNL1        0.1189
     16 N         137.5570  140.0190  162.5040 N.am    1  UNL1       -0.3252
     17 C         138.4437  139.0643  163.2471 C.2     1  UNL1        0.2470
     18 O         138.7885  137.7356  162.6425 O.2     1  UNL1       -0.2702
     19 H         137.2014  139.7735  161.6194 H       1  UNL1        0.1453
     20 H         137.3307  140.8911  162.9008 H       1  UNL1        0.1453
     21 N         140.9853  140.6444  163.4562 N.pl3   1  UNL1       -0.2977
     22 H         141.1347  139.9942  162.7322 H       1  UNL1        0.1536
     23 C         141.4867  142.0512  163.3160 C.ar    1  UNL1        0.0493
     24 C         142.8986  142.3856  163.6965 C.ar    1  UNL1        0.0146
     25 C         143.3999  143.7924  163.5563 C.ar    1  UNL1        0.0012
     26 C         142.4895  144.8647  163.0356 C.ar    1  UNL1        0.0039
     27 C         141.0776  144.5303  162.6550 C.ar    1  UNL1        0.0726
     28 C         140.5762  143.1235  162.7952 C.ar    1  UNL1        0.0185
     29 C         140.1672  145.6026  162.1343 C.3     1  UNL1        0.4186
     30 F         139.2567  146.6749  161.6136 F       1  UNL1       -0.1659
     31 F         140.9914  145.6956  160.8845 F       1  UNL1       -0.1659
     32 F         139.3429  145.5097  163.3841 F       1  UNL1       -0.1659
@<TRIPOS>BOND
     1    16    17   am
     2    17    18    2
     3    17     1    1
     4     1     2   ar
     5     2     3   ar
     6     3     4   ar
     7     4     7    1
     8     7     8    1
     9     8     9    1
    10     9    10    1
    11    10    11    1
    12    11    12    1
    13    11    13    1
    14     4     5   ar
    15     5     6   ar
    16     6    21    1
    17    21    23    1
    18    23    24   ar
    19    24    25   ar
    20    25    26   ar
    21    26    27   ar
    22    27    29    1
    23    29    30    1
    24    29    31    1
    25    29    32    1
    26    27    28   ar
    27     6     1   ar
    28    28    23   ar
    29    13     7    1
    30    16    19    1
    31    16    20    1
    32    12    14    1
    33    12    15    1
    34    21    22    1
@<TRIPOS>MOLECULE
*****
 32 34 0 0 0
SMALL
GASTEIGER

@<TRIPOS>ATOM
      1 C         143.6772  143.0076  163.9887 C.ar    1  UNL1        0.1040
      2 C         144.3419  143.5819  165.2045 C.ar    1  UNL1        0.1091
      3 N         144.0495  143.0097  166.5599 N.ar    1  UNL1       -0.2119
      4 C         143.0924  141.8632  166.6995 C.ar    1  UNL1        0.2214
      5 N         142.4277  141.2889  165.4836 N.ar    1  UNL1       -0.1984
      6 C         142.7201  141.8611  164.1282 C.ar    1  UNL1        0.1409
      7 N         142.8000  141.2910  168.0549 N.pl3   1  UNL1       -0.2768
      8 C         142.6291  139.8103  168.2229 C.3     1  UNL1        0.0937
      9 C         142.3366  139.2381  169.5783 C.3     1  UNL1        0.0229
     10 C         142.2151  140.1466  170.7656 C.3     1  UNL1        0.0190
     11 C         142.3860  141.6273  170.5976 C.3     1  UNL1        0.0710
     12 N         142.2645  142.5359  171.7850 N.3     1  UNL1       -0.3208
     13 C         142.6785  142.1995  169.2422 C.3     1  UNL1        0.1090
     14 H         142.4085  143.5017  171.4902 H       1  UNL1        0.1189
     15 H         142.9679  142.2839  172.4793 H       1  UNL1        0.1189
     16 N         145.0766  143.0056  161.7997 N.am    1  UNL1       -0.3252
     17 C         143.9696  143.5798  162.6333 C.2     1  UNL1        0.2470
     18 O         143.1551  144.7262  162.1115 O.2     1  UNL1       -0.2702
     19 H         145.2685  143.3811  160.9101 H       1  UNL1        0.1453
     20 H         145.6112  142.2531  162.1421 H       1  UNL1        0.1453
     21 N         142.0554  141.2868  162.9123 N.pl3   1  UNL1       -0.2977
     22 H         142.2262  141.6798  162.0260 H       1  UNL1        0.1536
     23 C         141.1304  140.1136  163.0469 C.ar    1  UNL1        0.0493
     24 C         141.1606  139.0139  162.0271 C.ar    1  UNL1        0.0146
     25 C         140.2356  137.8408  162.1617 C.ar    1  UNL1        0.0012
     26 C         139.2805  137.7673  163.3160 C.ar    1  UNL1        0.0039
     27 C         139.2503  138.8669  164.3357 C.ar    1  UNL1        0.0726
     28 C         140.1753  140.0401  164.2012 C.ar    1  UNL1        0.0185
     29 C         138.2952  138.7934  165.4900 C.3     1  UNL1        0.4186
     30 F         137.3401  138.7198  166.6442 F       1  UNL1       -0.1659
     31 F         137.9548  140.2419  165.3005 F       1  UNL1       -0.1659
     32 F         138.6357  137.3448  165.6794 F       1  UNL1       -0.1659
@<TRIPOS>BOND
     1    16    17   am
     2    17    18    2
     3    17     1    1
     4     1     2   ar
     5     2     3   ar
     6     3     4   ar
     7     4     7    1
     8     7     8    1
     9     8     9    1
    10     9    10    1
    11    10    11    1
    12    11    12    1
    13    11    13    1
    14     4     5   ar
    15     5     6   ar
    16     6    21    1
    17    21    23    1
    18    23    24   ar
    19    24    25   ar
    20    25    26   ar
    21    26    27   ar
    22    27    29    1
    23    29    30    1
    24    29    31    1
    25    29    32    1
    26    27    28   ar
    27     6     1   ar
    28    28    23   ar
    29    13     7    1
    30    16    19    1
    31    16    20    1
    32    12    14    1
    33    12    15    1
    34    21    22    1
@<TRIPOS>MOLECULE
*****
 32 34 0 0 0
SMALL
GASTEIGER

@<TRIPOS>ATOM
      1 C         141.4326  143.3243  159.7633 C.ar    1  UNL1        0.1040
      2 C         142.7083  142.7504  159.2219 C.ar    1  UNL1        0.1091
      3 N         142.7020  141.4085  158.5516 N.ar    1  UNL1       -0.2119
      4 C         141.4200  140.6405  158.4227 C.ar    1  UNL1        0.2214
      5 N         140.1443  141.2144  158.9641 N.ar    1  UNL1       -0.1984
      6 C         140.1506  142.5563  159.6344 C.ar    1  UNL1        0.1409
      7 N         141.4137  139.2986  157.7524 N.pl3   1  UNL1       -0.2768
      8 C         142.6962  138.5397  157.5813 C.3     1  UNL1        0.0937
      9 C         142.6899  137.1978  156.9110 C.3     1  UNL1        0.0229
     10 C         141.4012  136.6148  156.4118 C.3     1  UNL1        0.0190
     11 C         140.1187  137.3737  156.5830 C.3     1  UNL1        0.0710
     12 N         138.8299  136.7907  156.0838 N.3     1  UNL1       -0.3208
     13 C         140.1250  138.7156  157.2533 C.3     1  UNL1        0.1090
     14 H         138.0654  137.4361  156.2822 H       1  UNL1        0.1189
     15 H         138.6547  135.9019  156.5526 H       1  UNL1        0.1189
     16 N         142.4591  144.9722  161.4897 N.am    1  UNL1       -0.3252
     17 C         141.4389  144.6662  160.4336 C.2     1  UNL1        0.2470
     18 O         140.4249  145.7020  160.0478 O.2     1  UNL1       -0.2702
     19 H         142.4633  145.8530  161.9296 H       1  UNL1        0.1453
     20 H         143.1247  144.2924  161.7429 H       1  UNL1        0.1453
     21 N         138.8748  143.1302  160.1758 N.pl3   1  UNL1       -0.2977
     22 H         138.3132  143.7049  159.6071 H       1  UNL1        0.1536
     23 C         138.4547  142.8284  161.5838 C.ar    1  UNL1        0.0493
     24 C         137.8636  141.4913  161.9198 C.ar    1  UNL1        0.0146
     25 C         137.4435  141.1894  163.3278 C.ar    1  UNL1        0.0012
     26 C         137.6145  142.2246  164.3998 C.ar    1  UNL1        0.0039
     27 C         138.2056  143.5617  164.0638 C.ar    1  UNL1        0.0726
     28 C         138.6257  143.8635  162.6558 C.ar    1  UNL1        0.0185
     29 C         138.3766  144.5969  165.1357 C.3     1  UNL1        0.4186
     30 F         138.5476  145.6321  166.2077 F       1  UNL1       -0.1659
     31 F         136.9046  144.5460  165.4197 F       1  UNL1       -0.1659
     32 F         139.8486  144.6477  164.8518 F       1  UNL1       -0.1659
@<TRIPOS>BOND
     1    16    17   am
     2    17    18    2
     3    17     1    1
     4     1     2   ar
     5     2     3   ar
     6     3     4   ar
     7     4     7    1
     8     7     8    1
     9     8     9    1
    10     9    10    1
    11    10    11    1
    12    11    12    1
    13    11    13    1
    14     4     5   ar
    15     5     6   ar
    16     6    21    1
    17    21    23    1
    18    23    24   ar
    19    24    25   ar
    20    25    26   ar
    21    26    27   ar
    22    27    29    1
    23    29    30    1
    24    29    31    1
    25    29    32    1
    26    27    28   ar
    27     6     1   ar
    28    28    23   ar
    29    13     7    1
    30    16    19    1
    31    16    20    1
    32    12    14    1
    33    12    15    1
    34    21    22    1
