@<TRIPOS>MOLECULE
*****
 30 34 0 0 0
SMALL
GASTEIGER

@<TRIPOS>ATOM
      1 C         140.1589  140.7795  165.0290 C.3     1  UNL1        0.1686
      2 C         141.3024  140.0171  164.4280 C.3     1  UNL1        0.0595
      3 C         141.0597  138.6831  163.7864 C.3     1  UNL1        0.0614
      4 C         140.3774  137.4484  163.2762 C.3     1  UNL1        0.0175
      5 C         138.9169  137.5586  163.5999 C.3     1  UNL1        0.0175
      6 C         138.6964  138.8613  164.3100 C.3     1  UNL1        0.0614
      7 C         138.7727  140.2078  164.9884 C.3     1  UNL1        0.0595
      8 N         140.0207  139.5563  164.4253 N.3     1  UNL1       -0.2713
      9 O         140.4016  142.1135  165.6705 O.3     1  UNL1       -0.4791
     10 C         141.1178  142.2848  169.5702 C.ar    1  UNL1        0.0561
     11 C         142.6158  142.3603  169.5802 C.ar    1  UNL1        0.0047
     12 C         143.3759  142.3535  168.2870 C.ar    1  UNL1        0.0033
     13 C         142.6378  142.2712  166.9838 C.ar    1  UNL1        0.0369
     14 C         141.1397  142.1957  166.9738 C.ar    1  UNL1        0.1385
     15 C         140.3797  142.2025  168.2670 C.ar    1  UNL1        0.0414
     16 N         139.3113  143.3368  171.1129 N.am    1  UNL1       -0.3253
     17 C         140.3578  142.2916  170.8634 C.2     1  UNL1        0.2428
     18 O         140.6445  141.2531  171.9071 O.2     1  UNL1       -0.2704
     19 H         138.8125  143.3413  171.9617 H       1  UNL1        0.1453
     20 H         139.1232  144.0184  170.4278 H       1  UNL1        0.1453
     21 C         140.2635  140.8903  165.0668 C.3     1  UNL1        0.0992
     22 C         139.8240  142.1465  164.3747 C.ar    1  UNL1       -0.0029
     23 C         138.5212  142.7906  164.7456 C.ar    1  UNL1        0.0004
     24 C         138.0817  144.0467  164.0536 C.ar    1  UNL1        0.0399
     25 C         138.9451  144.6587  162.9906 C.ar    1  UNL1        0.1764
     26 C         140.2479  144.0146  162.6196 C.ar    1  UNL1        0.1762
     27 C         140.6874  142.7584  163.3117 C.ar    1  UNL1        0.0373
     28 O         140.8833  144.8413  161.5412 O.3     1  UNL1       -0.4346
     29 C         139.9731  145.9963  161.2458 C.3     1  UNL1        0.4294
     30 O         138.7752  145.8835  162.1415 O.3     1  UNL1       -0.4346
@<TRIPOS>BOND
     1    16    17   am
     2    17    18    2
     3    17    10    1
     4    10    11   ar
     5    11    12   ar
     6    12    13   ar
     7    13    14   ar
     8    14     9    1
     9     1     9    1
    10     1     2    1
    11     3     2    1
    12     3     4    1
    13     4     5    1
    14     6     5    1
    15     6     7    1
    16     6     8    1
    17     8    21    1
    18    21    22    1
    19    22    23   ar
    20    23    24   ar
    21    24    25   ar
    22    25    26   ar
    23    26    27   ar
    24    26    28    1
    25    28    29    1
    26    29    30    1
    27    14    15   ar
    28    15    10   ar
    29     7     1    1
    30    27    22   ar
    31     8     3    1
    32    30    25    1
    33    16    19    1
    34    16    20    1
@<TRIPOS>MOLECULE
*****
 30 34 0 0 0
SMALL
GASTEIGER

@<TRIPOS>ATOM
      1 C         140.7200  142.0292  167.2526 C.3     1  UNL1        0.1686
      2 C         140.3016  142.6381  168.5580 C.3     1  UNL1        0.0595
      3 C         141.3278  142.9317  169.6119 C.3     1  UNL1        0.0614
      4 C         142.6364  143.0461  170.3364 C.3     1  UNL1        0.0175
      5 C         143.7120  142.5124  169.4374 C.3     1  UNL1        0.0175
      6 C         143.0684  142.0683  168.1573 C.3     1  UNL1        0.0614
      7 C         142.1648  141.7139  167.0010 C.3     1  UNL1        0.0595
      8 N         141.5949  142.3275  168.2652 N.3     1  UNL1       -0.2713
      9 O         139.6937  141.7356  166.1988 O.3     1  UNL1       -0.4791
     10 C         139.2521  138.2482  164.3569 C.ar    1  UNL1        0.0561
     11 C         138.4625  137.4857  165.3793 C.ar    1  UNL1        0.0047
     12 C         138.0832  138.1399  166.6748 C.ar    1  UNL1        0.0033
     13 C         138.4937  139.5565  166.9479 C.ar    1  UNL1        0.0369
     14 C         139.2833  140.3190  165.9256 C.ar    1  UNL1        0.1385
     15 C         139.6626  139.6648  164.6301 C.ar    1  UNL1        0.0414
     16 N         138.6872  137.6339  161.8966 N.am    1  UNL1       -0.3253
     17 C         139.6313  137.5939  163.0615 C.2     1  UNL1        0.2428
     18 O         140.9546  136.8999  162.9310 O.2     1  UNL1       -0.2704
     19 H         138.9361  137.2045  161.0463 H       1  UNL1        0.1453
     20 H         137.8187  138.0894  161.9822 H       1  UNL1        0.1453
     21 C         140.5686  142.0339  167.2114 C.3     1  UNL1        0.0992
     22 C         140.4090  142.9591  166.0415 C.ar    1  UNL1       -0.0029
     23 C         139.2728  143.9379  166.0089 C.ar    1  UNL1        0.0004
     24 C         139.1132  144.8631  164.8391 C.ar    1  UNL1        0.0399
     25 C         140.0897  144.8095  163.7018 C.ar    1  UNL1        0.1764
     26 C         141.2259  143.8308  163.7343 C.ar    1  UNL1        0.1762
     27 C         141.3856  142.9055  164.9041 C.ar    1  UNL1        0.0373
     28 O         142.0256  144.0069  162.4776 O.3     1  UNL1       -0.4346
     29 C         141.3837  145.0946  161.6684 C.3     1  UNL1        0.4294
     30 O         140.1872  145.5906  162.4250 O.3     1  UNL1       -0.4346
@<TRIPOS>BOND
     1    16    17   am
     2    17    18    2
     3    17    10    1
     4    10    11   ar
     5    11    12   ar
     6    12    13   ar
     7    13    14   ar
     8    14     9    1
     9     1     9    1
    10     1     2    1
    11     3     2    1
    12     3     4    1
    13     4     5    1
    14     6     5    1
    15     6     7    1
    16     6     8    1
    17     8    21    1
    18    21    22    1
    19    22    23   ar
    20    23    24   ar
    21    24    25   ar
    22    25    26   ar
    23    26    27   ar
    24    26    28    1
    25    28    29    1
    26    29    30    1
    27    14    15   ar
    28    15    10   ar
    29     7     1    1
    30    27    22   ar
    31     8     3    1
    32    30    25    1
    33    16    19    1
    34    16    20    1
@<TRIPOS>MOLECULE
*****
 30 34 0 0 0
SMALL
GASTEIGER

@<TRIPOS>ATOM
      1 C         141.0848  140.6760  164.6721 C.3     1  UNL1        0.1686
      2 C         142.5395  140.8140  165.0109 C.3     1  UNL1        0.0595
      3 C         143.5621  140.0034  164.2711 C.3     1  UNL1        0.0614
      4 C         144.1980  139.0386  163.3145 C.3     1  UNL1        0.0175
      5 C         143.1086  138.4113  162.4962 C.3     1  UNL1        0.0175
      6 C         141.7994  138.9884  162.9469 C.3     1  UNL1        0.0614
      7 C         140.6527  139.7275  163.5934 C.3     1  UNL1        0.0595
      8 N         142.0797  139.9723  164.0438 N.3     1  UNL1       -0.2713
      9 O         140.0622  141.4866  165.4119 O.3     1  UNL1       -0.4791
     10 C         140.4753  142.5514  169.2126 C.ar    1  UNL1        0.0561
     11 C         139.9057  141.3501  169.9070 C.ar    1  UNL1        0.0047
     12 C         139.3882  140.1941  169.1031 C.ar    1  UNL1        0.0033
     13 C         139.4404  140.2397  167.6047 C.ar    1  UNL1        0.0369
     14 C         140.0100  141.4410  166.9103 C.ar    1  UNL1        0.1385
     15 C         140.5275  142.5970  167.7142 C.ar    1  UNL1        0.0414
     16 N         142.4001  143.6900  170.5350 N.am    1  UNL1       -0.3253
     17 C         140.9927  143.7073  170.0165 C.2     1  UNL1        0.2428
     18 O         140.1025  144.8803  170.3020 O.2     1  UNL1       -0.2704
     19 H         142.7397  144.4486  171.0626 H       1  UNL1        0.1453
     20 H         142.9843  142.9200  170.3475 H       1  UNL1        0.1453
     21 C         141.0572  140.7829  164.7837 C.3     1  UNL1        0.0992
     22 C         140.3470  141.9077  164.0904 C.ar    1  UNL1       -0.0029
     23 C         138.8767  141.8074  163.8109 C.ar    1  UNL1        0.0004
     24 C         138.1666  142.9321  163.1176 C.ar    1  UNL1        0.0399
     25 C         138.9267  144.1572  162.7038 C.ar    1  UNL1        0.1764
     26 C         140.3971  144.2576  162.9833 C.ar    1  UNL1        0.1762
     27 C         141.1072  143.1329  163.6766 C.ar    1  UNL1        0.0373
     28 O         140.8789  145.5789  162.4618 O.3     1  UNL1       -0.4346
     29 C         139.7064  146.2951  161.8600 C.3     1  UNL1        0.4294
     30 O         138.4999  145.4165  162.0096 O.3     1  UNL1       -0.4346
@<TRIPOS>BOND
     1    16    17   am
     2    17    18    2
     3    17    10    1
     4    10    11   ar
     5    11    12   ar
     6    12    13   ar
     7    13    14   ar
     8    14     9    1
     9     1     9    1
    10     1     2    1
    11     3     2    1
    12     3     4    1
    13     4     5    1
    14     6     5    1
    15     6     7    1
    16     6     8    1
    17     8    21    1
    18    21    22    1
    19    22    23   ar
    20    23    24   ar
    21    24    25   ar
    22    25    26   ar
    23    26    27   ar
    24    26    28    1
    25    28    29    1
    26    29    30    1
    27    14    15   ar
    28    15    10   ar
    29     7     1    1
    30    27    22   ar
    31     8     3    1
    32    30    25    1
    33    16    19    1
    34    16    20    1
@<TRIPOS>MOLECULE
*****
 30 34 0 0 0
SMALL
GASTEIGER

@<TRIPOS>ATOM
      1 C         142.4095  141.7317  165.6515 C.3     1  UNL1        0.1686
      2 C         143.3723  142.7527  165.1220 C.3     1  UNL1        0.0595
      3 C         144.6220  142.3117  164.4193 C.3     1  UNL1        0.0614
      4 C         145.6900  141.4492  163.8145 C.3     1  UNL1        0.0175
      5 C         145.2996  140.0155  164.0203 C.3     1  UNL1        0.0175
      6 C         143.9905  139.9920  164.7522 C.3     1  UNL1        0.0614
      7 C         142.6964  140.2696  165.4783 C.3     1  UNL1        0.0595
      8 N         143.5717  141.4111  164.9988 N.3     1  UNL1       -0.2713
      9 O         141.1598  142.1727  166.3543 O.3     1  UNL1       -0.4791
     10 C         138.3632  142.8084  163.6112 C.ar    1  UNL1        0.0561
     11 C         137.8533  144.1545  164.0330 C.ar    1  UNL1        0.0047
     12 C         138.4454  144.8400  165.2286 C.ar    1  UNL1        0.0033
     13 C         139.5476  144.1794  166.0024 C.ar    1  UNL1        0.0369
     14 C         140.0576  142.8333  165.5805 C.ar    1  UNL1        0.1385
     15 C         139.4655  142.1478  164.3849 C.ar    1  UNL1        0.0414
     16 N         137.2479  140.7224  162.5367 N.am    1  UNL1       -0.3253
     17 C         137.7710  142.1229  162.4156 C.2     1  UNL1        0.2428
     18 O         137.7020  142.8381  161.0989 O.2     1  UNL1       -0.2704
     19 H         136.8592  140.2725  161.7520 H       1  UNL1        0.1453
     20 H         137.2932  140.2530  163.4009 H       1  UNL1        0.1453
     21 C         142.3221  141.8521  165.7015 C.3     1  UNL1        0.0992
     22 C         142.1849  141.6549  167.1822 C.ar    1  UNL1       -0.0029
     23 C         143.0921  142.3898  168.1239 C.ar    1  UNL1        0.0004
     24 C         142.9549  142.1927  169.6045 C.ar    1  UNL1        0.0399
     25 C         141.9105  141.2607  170.1435 C.ar    1  UNL1        0.1764
     26 C         141.0032  140.5258  169.2018 C.ar    1  UNL1        0.1762
     27 C         141.1404  140.7229  167.7211 C.ar    1  UNL1        0.0373
     28 O         140.0740  139.6786  170.0197 O.3     1  UNL1       -0.4346
     29 C         140.4070  139.8900  171.4669 C.3     1  UNL1        0.4294
     30 O         141.5420  140.8678  171.5434 O.3     1  UNL1       -0.4346
@<TRIPOS>BOND
     1    16    17   am
     2    17    18    2
     3    17    10    1
     4    10    11   ar
     5    11    12   ar
     6    12    13   ar
     7    13    14   ar
     8    14     9    1
     9     1     9    1
    10     1     2    1
    11     3     2    1
    12     3     4    1
    13     4     5    1
    14     6     5    1
    15     6     7    1
    16     6     8    1
    17     8    21    1
    18    21    22    1
    19    22    23   ar
    20    23    24   ar
    21    24    25   ar
    22    25    26   ar
    23    26    27   ar
    24    26    28    1
    25    28    29    1
    26    29    30    1
    27    14    15   ar
    28    15    10   ar
    29     7     1    1
    30    27    22   ar
    31     8     3    1
    32    30    25    1
    33    16    19    1
    34    16    20    1
@<TRIPOS>MOLECULE
*****
 30 34 0 0 0
SMALL
GASTEIGER

@<TRIPOS>ATOM
      1 C         141.8584  141.8841  165.0299 C.3     1  UNL1        0.1686
      2 C         143.3069  142.2449  164.8822 C.3     1  UNL1        0.0595
      3 C         143.6940  143.6122  164.4018 C.3     1  UNL1        0.0614
      4 C         143.6144  145.0278  163.9119 C.3     1  UNL1        0.0175
      5 C         142.1653  145.4004  163.8050 C.3     1  UNL1        0.0175
      6 C         141.3494  144.2152  164.2289 C.3     1  UNL1        0.0614
      7 C         140.7971  142.8905  164.6971 C.3     1  UNL1        0.0595
      8 N         142.2942  143.1101  164.5977 N.3     1  UNL1       -0.2713
      9 O         141.4713  140.5168  165.5103 O.3     1  UNL1       -0.4791
     10 C         140.3164  140.3442  169.3032 C.ar    1  UNL1        0.0561
     11 C         141.4647  139.5980  169.9154 C.ar    1  UNL1        0.0047
     12 C         142.6152  139.1582  169.0592 C.ar    1  UNL1        0.0033
     13 C         142.6174  139.4644  167.5909 C.ar    1  UNL1        0.0369
     14 C         141.4691  140.2105  166.9787 C.ar    1  UNL1        0.1385
     15 C         140.3186  140.6504  167.8348 C.ar    1  UNL1        0.0414
     16 N         139.1704  142.1508  170.7771 N.am    1  UNL1       -0.3253
     17 C         139.1660  140.7840  170.1593 C.2     1  UNL1        0.2428
     18 O         138.0112  139.8569  170.3977 O.2     1  UNL1       -0.2704
     19 H         138.4154  142.4395  171.3391 H       1  UNL1        0.1453
     20 H         139.9284  142.7593  170.6206 H       1  UNL1        0.1453
     21 C         141.9071  141.7428  165.0781 C.3     1  UNL1        0.0992
     22 C         141.3230  140.7483  164.1189 C.ar    1  UNL1       -0.0029
     23 C         142.2269  139.8626  163.3139 C.ar    1  UNL1        0.0004
     24 C         141.6429  138.8681  162.3548 C.ar    1  UNL1        0.0399
     25 C         140.1548  138.7595  162.2007 C.ar    1  UNL1        0.1764
     26 C         139.2507  139.6452  163.0058 C.ar    1  UNL1        0.1762
     27 C         139.8348  140.6397  163.9649 C.ar    1  UNL1        0.0373
     28 O         137.8336  139.3133  162.6433 O.3     1  UNL1       -0.4346
     29 C         137.8617  138.2223  161.6142 C.3     1  UNL1        0.4294
     30 O         139.2963  137.8800  161.3407 O.3     1  UNL1       -0.4346
@<TRIPOS>BOND
     1    16    17   am
     2    17    18    2
     3    17    10    1
     4    10    11   ar
     5    11    12   ar
     6    12    13   ar
     7    13    14   ar
     8    14     9    1
     9     1     9    1
    10     1     2    1
    11     3     2    1
    12     3     4    1
    13     4     5    1
    14     6     5    1
    15     6     7    1
    16     6     8    1
    17     8    21    1
    18    21    22    1
    19    22    23   ar
    20    23    24   ar
    21    24    25   ar
    22    25    26   ar
    23    26    27   ar
    24    26    28    1
    25    28    29    1
    26    29    30    1
    27    14    15   ar
    28    15    10   ar
    29     7     1    1
    30    27    22   ar
    31     8     3    1
    32    30    25    1
    33    16    19    1
    34    16    20    1
@<TRIPOS>MOLECULE
*****
 30 34 0 0 0
SMALL
GASTEIGER

@<TRIPOS>ATOM
      1 C         141.1001  142.9888  164.7380 C.3     1  UNL1        0.1686
      2 C         139.6423  143.0066  164.3852 C.3     1  UNL1        0.0595
      3 C         139.1007  144.0806  163.4890 C.3     1  UNL1        0.0614
      4 C         139.0091  145.2873  162.6026 C.3     1  UNL1        0.0175
      5 C         140.3798  145.8867  162.4926 C.3     1  UNL1        0.0175
      6 C         141.3184  145.0505  163.3110 C.3     1  UNL1        0.0614
      7 C         142.0162  144.0449  164.1947 C.3     1  UNL1        0.0595
      8 N         140.5279  143.9343  163.9268 N.3     1  UNL1       -0.2713
      9 O         141.6417  141.9148  165.6343 O.3     1  UNL1       -0.4791
     10 C         140.1860  142.0505  169.3237 C.ar    1  UNL1        0.0561
     11 C         139.4127  140.7661  169.3707 C.ar    1  UNL1        0.0047
     12 C         139.3823  139.8645  168.1722 C.ar    1  UNL1        0.0033
     13 C         140.1254  140.2474  166.9267 C.ar    1  UNL1        0.0369
     14 C         140.8987  141.5318  166.8797 C.ar    1  UNL1        0.1385
     15 C         140.9290  142.4334  168.0782 C.ar    1  UNL1        0.0414
     16 N         140.0820  144.4358  170.3482 N.am    1  UNL1       -0.3253
     17 C         140.2163  142.9520  170.5222 C.2     1  UNL1        0.2428
     18 O         140.3808  142.3696  171.8947 O.2     1  UNL1       -0.2704
     19 H         140.1019  145.0275  171.1348 H       1  UNL1        0.1453
     20 H         139.9740  144.8180  169.4473 H       1  UNL1        0.1453
     21 C         141.0695  142.8603  164.8230 C.3     1  UNL1        0.0992
     22 C         141.9676  141.7977  164.2621 C.ar    1  UNL1       -0.0029
     23 C         143.3936  141.7039  164.7175 C.ar    1  UNL1        0.0004
     24 C         144.2917  140.6414  164.1567 C.ar    1  UNL1        0.0399
     25 C         143.7636  139.6726  163.1405 C.ar    1  UNL1        0.1764
     26 C         142.3375  139.7664  162.6851 C.ar    1  UNL1        0.1762
     27 C         141.4395  140.8290  163.2459 C.ar    1  UNL1        0.0373
     28 O         142.0999  138.6801  161.6785 O.3     1  UNL1       -0.4346
     29 C         143.3793  137.9149  161.5117 C.3     1  UNL1        0.4294
     30 O         144.4075  138.5283  162.4153 O.3     1  UNL1       -0.4346
@<TRIPOS>BOND
     1    16    17   am
     2    17    18    2
     3    17    10    1
     4    10    11   ar
     5    11    12   ar
     6    12    13   ar
     7    13    14   ar
     8    14     9    1
     9     1     9    1
    10     1     2    1
    11     3     2    1
    12     3     4    1
    13     4     5    1
    14     6     5    1
    15     6     7    1
    16     6     8    1
    17     8    21    1
    18    21    22    1
    19    22    23   ar
    20    23    24   ar
    21    24    25   ar
    22    25    26   ar
    23    26    27   ar
    24    26    28    1
    25    28    29    1
    26    29    30    1
    27    14    15   ar
    28    15    10   ar
    29     7     1    1
    30    27    22   ar
    31     8     3    1
    32    30    25    1
    33    16    19    1
    34    16    20    1
@<TRIPOS>MOLECULE
*****
 30 34 0 0 0
SMALL
GASTEIGER

@<TRIPOS>ATOM
      1 C         141.5395  140.5189  166.8441 C.3     1  UNL1        0.1686
      2 C         142.3915  139.8795  167.9001 C.3     1  UNL1        0.0595
      3 C         141.8529  139.6941  169.2878 C.3     1  UNL1        0.0614
      4 C         140.9404  139.7128  170.4783 C.3     1  UNL1        0.0175
      5 C         139.6456  140.3440  170.0599 C.3     1  UNL1        0.0175
      6 C         139.7578  140.7154  168.6109 C.3     1  UNL1        0.0614
      7 C         140.1488  140.9728  167.1756 C.3     1  UNL1        0.0595
      8 N         141.1219  140.3137  168.1337 N.3     1  UNL1       -0.2713
      9 O         142.0782  140.7043  165.4565 O.3     1  UNL1       -0.4791
     10 C         142.5591  144.1492  163.5457 C.ar    1  UNL1        0.0561
     11 C         143.7904  144.6777  164.2199 C.ar    1  UNL1        0.0047
     12 C         144.4510  143.8818  165.3063 C.ar    1  UNL1        0.0033
     13 C         143.8802  142.5573  165.7185 C.ar    1  UNL1        0.0369
     14 C         142.6490  142.0288  165.0443 C.ar    1  UNL1        0.1385
     15 C         141.9884  142.8247  163.9579 C.ar    1  UNL1        0.0414
     16 N         140.9251  146.0308  162.8110 N.am    1  UNL1       -0.3253
     17 C         141.8986  144.9451  162.4593 C.2     1  UNL1        0.2428
     18 O         142.2117  144.6554  161.0213 O.2     1  UNL1       -0.2704
     19 H         140.4916  146.5532  162.0980 H       1  UNL1        0.1453
     20 H         140.7197  146.2209  163.7549 H       1  UNL1        0.1453
     21 C         141.6606  140.4992  166.7461 C.3     1  UNL1        0.0992
     22 C         141.1508  139.6450  165.6233 C.ar    1  UNL1       -0.0029
     23 C         141.9209  138.4310  165.1953 C.ar    1  UNL1        0.0004
     24 C         141.4111  137.5769  164.0725 C.ar    1  UNL1        0.0399
     25 C         140.1313  137.9367  163.3778 C.ar    1  UNL1        0.1764
     26 C         139.3612  139.1507  163.8059 C.ar    1  UNL1        0.1762
     27 C         139.8710  140.0048  164.9286 C.ar    1  UNL1        0.0373
     28 O         138.1406  139.2544  162.9402 O.3     1  UNL1       -0.4346
     29 C         138.1564  138.1045  161.9772 C.3     1  UNL1        0.4294
     30 O         139.3867  137.2901  162.2476 O.3     1  UNL1       -0.4346
@<TRIPOS>BOND
     1    16    17   am
     2    17    18    2
     3    17    10    1
     4    10    11   ar
     5    11    12   ar
     6    12    13   ar
     7    13    14   ar
     8    14     9    1
     9     1     9    1
    10     1     2    1
    11     3     2    1
    12     3     4    1
    13     4     5    1
    14     6     5    1
    15     6     7    1
    16     6     8    1
    17     8    21    1
    18    21    22    1
    19    22    23   ar
    20    23    24   ar
    21    24    25   ar
    22    25    26   ar
    23    26    27   ar
    24    26    28    1
    25    28    29    1
    26    29    30    1
    27    14    15   ar
    28    15    10   ar
    29     7     1    1
    30    27    22   ar
    31     8     3    1
    32    30    25    1
    33    16    19    1
    34    16    20    1
@<TRIPOS>MOLECULE
*****
 30 34 0 0 0
SMALL
GASTEIGER

@<TRIPOS>ATOM
      1 C         142.6253  142.0741  165.1260 C.3     1  UNL1        0.1686
      2 C         143.9368  142.5289  164.5574 C.3     1  UNL1        0.0595
      3 C         144.0323  143.8521  163.8574 C.3     1  UNL1        0.0614
      4 C         143.6722  145.1844  163.2696 C.3     1  UNL1        0.0175
      5 C         142.2130  145.4231  163.5220 C.3     1  UNL1        0.0175
      6 C         141.6712  144.2385  164.2657 C.3     1  UNL1        0.0614
      7 C         141.4094  142.9426  164.9945 C.3     1  UNL1        0.0595
      8 N         142.7957  143.2676  164.4730 N.3     1  UNL1       -0.2713
      9 O         142.5298  140.7509  165.8260 O.3     1  UNL1       -0.4791
     10 C         143.3104  141.7941  169.5746 C.ar    1  UNL1        0.0561
     11 C         142.9268  140.5405  170.3034 C.ar    1  UNL1        0.0047
     12 C         142.4109  139.3569  169.5398 C.ar    1  UNL1        0.0033
     13 C         142.2786  139.4271  168.0473 C.ar    1  UNL1        0.0369
     14 C         142.6621  140.6807  167.3185 C.ar    1  UNL1        0.1385
     15 C         143.1781  141.8643  168.0821 C.ar    1  UNL1        0.0414
     16 N         145.3037  143.2098  170.4536 N.am    1  UNL1       -0.3253
     17 C         143.8263  142.9776  170.3383 C.2     1  UNL1        0.2428
     18 O         142.8647  143.9289  170.9867 O.2     1  UNL1       -0.2704
     19 H         145.6423  143.9865  170.9548 H       1  UNL1        0.1453
     20 H         145.9348  142.5854  170.0280 H       1  UNL1        0.1453
     21 C         142.7001  141.9444  165.1730 C.3     1  UNL1        0.0992
     22 C         142.1114  140.7612  164.4634 C.ar    1  UNL1       -0.0029
     23 C         143.0111  139.7098  163.8846 C.ar    1  UNL1        0.0004
     24 C         142.4224  138.5266  163.1750 C.ar    1  UNL1        0.0399
     25 C         140.9340  138.3949  163.0441 C.ar    1  UNL1        0.1764
     26 C         140.0342  139.4463  163.6228 C.ar    1  UNL1        0.1762
     27 C         140.6229  140.6295  164.3325 C.ar    1  UNL1        0.0373
     28 O         138.6156  139.0493  163.3402 O.3     1  UNL1       -0.4346
     29 C         138.6386  137.7525  162.5867 C.3     1  UNL1        0.4294
     30 O         140.0714  137.3480  162.4037 O.3     1  UNL1       -0.4346
@<TRIPOS>BOND
     1    16    17   am
     2    17    18    2
     3    17    10    1
     4    10    11   ar
     5    11    12   ar
     6    12    13   ar
     7    13    14   ar
     8    14     9    1
     9     1     9    1
    10     1     2    1
    11     3     2    1
    12     3     4    1
    13     4     5    1
    14     6     5    1
    15     6     7    1
    16     6     8    1
    17     8    21    1
    18    21    22    1
    19    22    23   ar
    20    23    24   ar
    21    24    25   ar
    22    25    26   ar
    23    26    27   ar
    24    26    28    1
    25    28    29    1
    26    29    30    1
    27    14    15   ar
    28    15    10   ar
    29     7     1    1
    30    27    22   ar
    31     8     3    1
    32    30    25    1
    33    16    19    1
    34    16    20    1
@<TRIPOS>MOLECULE
*****
 30 34 0 0 0
SMALL
GASTEIGER

@<TRIPOS>ATOM
      1 C         140.4256  141.1884  167.1321 C.3     1  UNL1        0.1686
      2 C         139.6592  140.2809  168.0481 C.3     1  UNL1        0.0595
      3 C         139.3506  140.7166  169.4499 C.3     1  UNL1        0.0614
      4 C         139.2756  141.5326  170.7064 C.3     1  UNL1        0.0175
      5 C         139.9825  142.8321  170.4579 C.3     1  UNL1        0.0175
      6 C         140.4944  142.8192  169.0480 C.3     1  UNL1        0.0614
      7 C         140.8834  142.5316  167.6180 C.3     1  UNL1        0.0595
      8 N         140.1038  141.5118  168.4250 N.3     1  UNL1       -0.2713
      9 O         140.7341  140.7527  165.7304 O.3     1  UNL1       -0.4791
     10 C         144.2968  140.3394  164.0315 C.ar    1  UNL1        0.0561
     11 C         144.8023  139.1110  164.7284 C.ar    1  UNL1        0.0047
     12 C         143.9517  138.4298  165.7592 C.ar    1  UNL1        0.0033
     13 C         142.5957  138.9771  166.0932 C.ar    1  UNL1        0.0369
     14 C         142.0902  140.2054  165.3964 C.ar    1  UNL1        0.1385
     15 C         142.9408  140.8866  164.3655 C.ar    1  UNL1        0.0414
     16 N         146.2585  141.9327  163.4289 N.am    1  UNL1       -0.3253
     17 C         145.1474  141.0205  163.0007 C.2     1  UNL1        0.2428
     18 O         144.8869  140.7892  161.5418 O.2     1  UNL1       -0.2704
     19 H         146.8167  142.3798  162.7523 H       1  UNL1        0.1453
     20 H         146.4294  142.0845  164.3865 H       1  UNL1        0.1453
     21 C         140.4124  141.0761  167.0232 C.3     1  UNL1        0.0992
     22 C         139.7513  141.7592  165.8628 C.ar    1  UNL1       -0.0029
     23 C         138.5899  141.1083  165.1718 C.ar    1  UNL1        0.0004
     24 C         137.9289  141.7914  164.0115 C.ar    1  UNL1        0.0399
     25 C         138.4292  143.1253  163.5422 C.ar    1  UNL1        0.1764
     26 C         139.5906  143.7762  164.2332 C.ar    1  UNL1        0.1762
     27 C         140.2517  143.0932  165.3935 C.ar    1  UNL1        0.0373
     28 O         139.8613  145.0848  163.5519 O.3     1  UNL1       -0.4346
     29 C         138.8671  145.2427  162.4398 C.3     1  UNL1        0.4294
     30 O         137.9821  144.0317  162.4338 O.3     1  UNL1       -0.4346
@<TRIPOS>BOND
     1    16    17   am
     2    17    18    2
     3    17    10    1
     4    10    11   ar
     5    11    12   ar
     6    12    13   ar
     7    13    14   ar
     8    14     9    1
     9     1     9    1
    10     1     2    1
    11     3     2    1
    12     3     4    1
    13     4     5    1
    14     6     5    1
    15     6     7    1
    16     6     8    1
    17     8    21    1
    18    21    22    1
    19    22    23   ar
    20    23    24   ar
    21    24    25   ar
    22    25    26   ar
    23    26    27   ar
    24    26    28    1
    25    28    29    1
    26    29    30    1
    27    14    15   ar
    28    15    10   ar
    29     7     1    1
    30    27    22   ar
    31     8     3    1
    32    30    25    1
    33    16    19    1
    34    16    20    1
