@<TRIPOS>MOLECULE
*****
 23 26 0 0 0
SMALL
GASTEIGER

@<TRIPOS>ATOM
      1 O         144.0555  140.3360  164.8525 O.2     1  UNL1       -0.2666
      2 C         142.7178  140.9391  165.1636 C.2     1  UNL1        0.2834
      3 C         142.1549  142.0123  164.2796 C.ar    1  UNL1        0.1985
      4 N         142.6847  142.6734  163.0417 N.ar    1  UNL1       -0.2227
      5 C         141.6745  143.6850  162.5878 C.ar    1  UNL1        0.0988
      6 C         141.6564  144.6341  161.4265 C.ar    1  UNL1        0.0206
      7 C         140.4841  145.5474  161.2225 C.ar    1  UNL1        0.0016
      8 C         139.3300  145.5116  162.1799 C.ar    1  UNL1        0.0054
      9 C         139.3480  144.5625  163.3412 C.ar    1  UNL1        0.0887
     10 C         140.5203  143.6492  163.5452 C.ar    1  UNL1        0.0829
     11 N         140.8172  142.6154  164.5907 N.ar    1  UNL1       -0.3061
     12 C         140.0424  142.1453  165.7860 C.3     1  UNL1        0.1291
     13 C         140.6052  141.0721  166.6700 C.3     1  UNL1        0.1183
     14 N         141.9429  140.4691  166.3589 N.am    1  UNL1       -0.2716
     15 C         138.1938  144.5267  164.2986 C.3     1  UNL1        0.4200
     16 F         137.0397  144.4908  165.2560 F       1  UNL1       -0.1658
     17 F         139.0041  145.2899  165.3040 F       1  UNL1       -0.1658
     18 F         137.3835  143.7634  163.2932 F       1  UNL1       -0.1658
     19 C         142.5058  139.3959  167.2429 C.3     1  UNL1        0.0938
     20 C         142.6644  139.6426  168.7139 C.3     1  UNL1        0.0199
     21 C         142.9916  140.8373  169.5598 C.3     1  UNL1        0.0017
     22 C         142.8886  139.9914  170.7943 C.3     1  UNL1        0.0001
     23 C         142.5614  138.7968  169.9484 C.3     1  UNL1        0.0017
@<TRIPOS>BOND
     1     1     2    2
     2     2     3    1
     3     3     4   ar
     4     4     5   ar
     5     5     6   ar
     6     6     7   ar
     7     7     8   ar
     8     8     9   ar
     9     9    15    1
    10    15    16    1
    11    15    17    1
    12    15    18    1
    13     9    10   ar
    14    10    11   ar
    15    11    12    1
    16    12    13    1
    17    13    14    1
    18    14    19    1
    19    19    20    1
    20    20    21    1
    21    21    22    1
    22    22    23    1
    23    14     2   am
    24    23    20    1
    25    11     3   ar
    26    10     5   ar
@<TRIPOS>MOLECULE
*****
 23 26 0 0 0
SMALL
GASTEIGER

@<TRIPOS>ATOM
      1 O         142.9336  139.6927  167.9192 O.2     1  UNL1       -0.2666
      2 C         141.7372  139.6079  167.0184 C.2     1  UNL1        0.2834
      3 C         141.9061  139.2071  165.5828 C.ar    1  UNL1        0.1985
      4 N         143.1183  138.8398  164.7792 N.ar    1  UNL1       -0.2227
      5 C         142.6710  138.5280  163.3818 C.ar    1  UNL1        0.0988
      6 C         143.4269  138.1076  162.1563 C.ar    1  UNL1        0.0206
      7 C         142.6942  137.8619  160.8708 C.ar    1  UNL1        0.0016
      8 C         141.2056  138.0365  160.8107 C.ar    1  UNL1        0.0054
      9 C         140.4497  138.4569  162.0362 C.ar    1  UNL1        0.0887
     10 C         141.1824  138.7026  163.3218 C.ar    1  UNL1        0.0829
     11 N         140.7097  139.1223  164.6821 N.ar    1  UNL1       -0.3061
     12 C         139.3444  139.4383  165.2169 C.3     1  UNL1        0.1291
     13 C         139.1755  139.8390  166.6525 C.3     1  UNL1        0.1183
     14 N         140.3719  139.9238  167.5532 N.am    1  UNL1       -0.2716
     15 C         138.9611  138.6315  161.9761 C.3     1  UNL1        0.4200
     16 F         137.4725  138.8061  161.9161 F       1  UNL1       -0.1658
     17 F         138.7798  137.3421  162.7210 F       1  UNL1       -0.1658
     18 F         139.1424  139.9208  161.2313 F       1  UNL1       -0.1658
     19 C         140.2030  140.3246  168.9888 C.3     1  UNL1        0.0938
     20 C         140.2640  141.7726  169.3754 C.3     1  UNL1        0.0199
     21 C         139.9109  142.5583  170.6035 C.3     1  UNL1        0.0017
     22 C         140.3502  143.8204  169.9222 C.3     1  UNL1        0.0001
     23 C         140.7032  143.0347  168.6943 C.3     1  UNL1        0.0017
@<TRIPOS>BOND
     1     1     2    2
     2     2     3    1
     3     3     4   ar
     4     4     5   ar
     5     5     6   ar
     6     6     7   ar
     7     7     8   ar
     8     8     9   ar
     9     9    15    1
    10    15    16    1
    11    15    17    1
    12    15    18    1
    13     9    10   ar
    14    10    11   ar
    15    11    12    1
    16    12    13    1
    17    13    14    1
    18    14    19    1
    19    19    20    1
    20    20    21    1
    21    21    22    1
    22    22    23    1
    23    14     2   am
    24    23    20    1
    25    11     3   ar
    26    10     5   ar
@<TRIPOS>MOLECULE
*****
 23 26 0 0 0
SMALL
GASTEIGER

@<TRIPOS>ATOM
      1 O         140.4812  139.9010  168.6313 O.2     1  UNL1       -0.2666
      2 C         140.1249  140.7912  167.4778 C.2     1  UNL1        0.2834
      3 C         139.6662  140.1918  166.1815 C.ar    1  UNL1        0.1985
      4 N         139.4682  138.7696  165.7478 N.ar    1  UNL1       -0.2227
      5 C         138.9895  138.7808  164.3262 C.ar    1  UNL1        0.0988
      6 C         138.6301  137.6744  163.3794 C.ar    1  UNL1        0.0206
      7 C         138.1728  137.9971  161.9878 C.ar    1  UNL1        0.0016
      8 C         138.0750  139.4263  161.5429 C.ar    1  UNL1        0.0054
      9 C         138.4344  140.5327  162.4898 C.ar    1  UNL1        0.0887
     10 C         138.8917  140.2100  163.8814 C.ar    1  UNL1        0.0829
     11 N         139.3099  141.0820  165.0280 N.ar    1  UNL1       -0.3061
     12 C         139.4123  142.5716  165.1708 C.3     1  UNL1        0.1291
     13 C         139.8710  143.1711  166.4671 C.3     1  UNL1        0.1183
     14 N         140.2273  142.2808  167.6206 N.am    1  UNL1       -0.2716
     15 C         138.3366  141.9619  162.0449 C.3     1  UNL1        0.4200
     16 F         138.2388  143.3911  161.6001 F       1  UNL1       -0.1658
     17 F         137.0610  142.1155  162.8190 F       1  UNL1       -0.1658
     18 F         139.6122  141.8083  161.2709 F       1  UNL1       -0.1658
     19 C         140.6860  142.8803  168.9169 C.3     1  UNL1        0.0938
     20 C         142.1211  142.7550  169.3348 C.3     1  UNL1        0.0199
     21 C         142.8940  143.0687  170.5816 C.3     1  UNL1        0.0017
     22 C         144.1507  142.5777  169.9260 C.3     1  UNL1        0.0001
     23 C         143.3778  142.2641  168.6794 C.3     1  UNL1        0.0017
@<TRIPOS>BOND
     1     1     2    2
     2     2     3    1
     3     3     4   ar
     4     4     5   ar
     5     5     6   ar
     6     6     7   ar
     7     7     8   ar
     8     8     9   ar
     9     9    15    1
    10    15    16    1
    11    15    17    1
    12    15    18    1
    13     9    10   ar
    14    10    11   ar
    15    11    12    1
    16    12    13    1
    17    13    14    1
    18    14    19    1
    19    19    20    1
    20    20    21    1
    21    21    22    1
    22    22    23    1
    23    14     2   am
    24    23    20    1
    25    11     3   ar
    26    10     5   ar
@<TRIPOS>MOLECULE
*****
 23 26 0 0 0
SMALL
GASTEIGER

@<TRIPOS>ATOM
      1 O         138.4152  138.4394  165.9597 O.2     1  UNL1       -0.2666
      2 C         139.7769  139.0654  165.8983 C.2     1  UNL1        0.2834
      3 C         140.6321  138.8826  164.6795 C.ar    1  UNL1        0.1985
      4 N         140.4027  138.1448  163.3938 N.ar    1  UNL1       -0.2227
      5 C         141.6227  138.3148  162.5378 C.ar    1  UNL1        0.0988
      6 C         141.9652  137.8110  161.1671 C.ar    1  UNL1        0.0206
      7 C         143.2911  138.1500  160.5531 C.ar    1  UNL1        0.0016
      8 C         144.2744  138.9929  161.3097 C.ar    1  UNL1        0.0054
      9 C         143.9320  139.4967  162.6804 C.ar    1  UNL1        0.0887
     10 C         142.6061  139.1576  163.2944 C.ar    1  UNL1        0.0829
     11 N         141.9939  139.5086  164.6181 N.ar    1  UNL1       -0.3061
     12 C         142.5004  140.3173  165.7754 C.3     1  UNL1        0.1291
     13 C         141.6453  140.5000  166.9941 C.3     1  UNL1        0.1183
     14 N         140.2835  139.8740  167.0556 N.am    1  UNL1       -0.2716
     15 C         144.9154  140.3396  163.4371 C.3     1  UNL1        0.4200
     16 F         145.8988  141.1824  164.1937 F       1  UNL1       -0.1658
     17 F         144.5167  141.5350  162.6235 F       1  UNL1       -0.1658
     18 F         145.3141  139.1441  164.2506 F       1  UNL1       -0.1658
     19 C         139.4283  140.0568  168.2743 C.3     1  UNL1        0.0938
     20 C         139.9753  140.7721  169.4739 C.3     1  UNL1        0.0199
     21 C         140.7638  140.3650  170.6834 C.3     1  UNL1        0.0017
     22 C         140.7488  141.7836  171.1705 C.3     1  UNL1        0.0001
     23 C         139.9603  142.1906  169.9612 C.3     1  UNL1        0.0017
@<TRIPOS>BOND
     1     1     2    2
     2     2     3    1
     3     3     4   ar
     4     4     5   ar
     5     5     6   ar
     6     6     7   ar
     7     7     8   ar
     8     8     9   ar
     9     9    15    1
    10    15    16    1
    11    15    17    1
    12    15    18    1
    13     9    10   ar
    14    10    11   ar
    15    11    12    1
    16    12    13    1
    17    13    14    1
    18    14    19    1
    19    19    20    1
    20    20    21    1
    21    21    22    1
    22    22    23    1
    23    14     2   am
    24    23    20    1
    25    11     3   ar
    26    10     5   ar
@<TRIPOS>MOLECULE
*****
 23 26 0 0 0
SMALL
GASTEIGER

@<TRIPOS>ATOM
      1 O         138.4385  145.2446  162.1165 O.2     1  UNL1       -0.2666
      2 C         139.8510  144.7582  162.2507 C.2     1  UNL1        0.2834
      3 C         140.3154  144.1496  163.5407 C.ar    1  UNL1        0.1985
      4 N         139.6132  143.8988  164.8422 N.ar    1  UNL1       -0.2227
      5 C         140.5918  143.2573  165.7808 C.ar    1  UNL1        0.0988
      6 C         140.4617  142.7870  167.1992 C.ar    1  UNL1        0.0206
      7 C         141.6385  142.1711  167.8960 C.ar    1  UNL1        0.0016
      8 C         142.9455  142.0255  167.1745 C.ar    1  UNL1        0.0054
      9 C         143.0757  142.4958  165.7562 C.ar    1  UNL1        0.0887
     10 C         141.8988  143.1117  165.0593 C.ar    1  UNL1        0.0829
     11 N         141.7280  143.6632  163.6749 N.ar    1  UNL1       -0.3061
     12 C         142.6762  143.7853  162.5190 C.3     1  UNL1        0.1291
     13 C         142.2118  144.3938  161.2290 C.3     1  UNL1        0.1183
     14 N         140.7992  144.8802  161.0948 N.am    1  UNL1       -0.2716
     15 C         144.3827  142.3502  165.0347 C.3     1  UNL1        0.4200
     16 F         145.6896  142.2046  164.3132 F       1  UNL1       -0.1658
     17 F         143.9677  140.9900  164.5574 F       1  UNL1       -0.1658
     18 F         144.7976  143.7103  165.5119 F       1  UNL1       -0.1658
     19 C         140.3348  145.4887  159.8048 C.3     1  UNL1        0.0938
     20 C         141.0570  145.1796  158.5270 C.3     1  UNL1        0.0199
     21 C         141.1267  143.9964  157.6075 C.3     1  UNL1        0.0017
     22 C         142.0782  144.7424  156.7198 C.3     1  UNL1        0.0001
     23 C         142.0085  145.9255  157.6392 C.3     1  UNL1        0.0017
@<TRIPOS>BOND
     1     1     2    2
     2     2     3    1
     3     3     4   ar
     4     4     5   ar
     5     5     6   ar
     6     6     7   ar
     7     7     8   ar
     8     8     9   ar
     9     9    15    1
    10    15    16    1
    11    15    17    1
    12    15    18    1
    13     9    10   ar
    14    10    11   ar
    15    11    12    1
    16    12    13    1
    17    13    14    1
    18    14    19    1
    19    19    20    1
    20    20    21    1
    21    21    22    1
    22    22    23    1
    23    14     2   am
    24    23    20    1
    25    11     3   ar
    26    10     5   ar
@<TRIPOS>MOLECULE
*****
 23 26 0 0 0
SMALL
GASTEIGER

@<TRIPOS>ATOM
      1 O         138.6934  139.4875  168.0570 O.2     1  UNL1       -0.2666
      2 C         139.8888  139.5925  167.1570 C.2     1  UNL1        0.2834
      3 C         139.7675  139.2380  165.7045 C.ar    1  UNL1        0.1985
      4 N         138.6085  138.7587  164.8817 N.ar    1  UNL1       -0.2227
      5 C         139.0876  138.5674  163.4732 C.ar    1  UNL1        0.0988
      6 C         138.3868  138.1111  162.2279 C.ar    1  UNL1        0.0206
      7 C         139.1412  138.0159  160.9350 C.ar    1  UNL1        0.0016
      8 C         140.5963  138.3770  160.8872 C.ar    1  UNL1        0.0054
      9 C         141.2970  138.8334  162.1325 C.ar    1  UNL1        0.0887
     10 C         140.5427  138.9286  163.4254 C.ar    1  UNL1        0.0829
     11 N         140.9629  139.3430  164.8044 N.ar    1  UNL1       -0.3061
     12 C         142.2795  139.8025  165.3569 C.3     1  UNL1        0.1291
     13 C         142.4009  140.1569  166.8094 C.3     1  UNL1        0.1183
     14 N         141.2055  140.0519  167.7094 N.am    1  UNL1       -0.2716
     15 C         142.7521  139.1946  162.0847 C.3     1  UNL1        0.4200
     16 F         144.2072  139.5557  162.0370 F       1  UNL1       -0.1658
     17 F         142.3897  140.6095  161.7431 F       1  UNL1       -0.1658
     18 F         143.1145  137.7796  162.4263 F       1  UNL1       -0.1658
     19 C         141.3268  140.4064  169.1619 C.3     1  UNL1        0.0938
     20 C         140.9169  141.7684  169.6383 C.3     1  UNL1        0.0199
     21 C         139.7056  142.3340  170.3186 C.3     1  UNL1        0.0017
     22 C         140.3373  143.6945  170.3121 C.3     1  UNL1        0.0001
     23 C         141.5485  143.1289  169.6318 C.3     1  UNL1        0.0017
@<TRIPOS>BOND
     1     1     2    2
     2     2     3    1
     3     3     4   ar
     4     4     5   ar
     5     5     6   ar
     6     6     7   ar
     7     7     8   ar
     8     8     9   ar
     9     9    15    1
    10    15    16    1
    11    15    17    1
    12    15    18    1
    13     9    10   ar
    14    10    11   ar
    15    11    12    1
    16    12    13    1
    17    13    14    1
    18    14    19    1
    19    19    20    1
    20    20    21    1
    21    21    22    1
    22    22    23    1
    23    14     2   am
    24    23    20    1
    25    11     3   ar
    26    10     5   ar
@<TRIPOS>MOLECULE
*****
 23 26 0 0 0
SMALL
GASTEIGER

@<TRIPOS>ATOM
      1 O         141.1759  140.1411  163.3690 O.2     1  UNL1       -0.2666
      2 C         140.8853  141.1216  164.4663 C.2     1  UNL1        0.2834
      3 C         141.2636  140.7976  165.8812 C.ar    1  UNL1        0.1985
      4 N         141.9284  139.6005  166.4935 N.ar    1  UNL1       -0.2227
      5 C         142.0487  139.8411  167.9692 C.ar    1  UNL1        0.0988
      6 C         142.6195  139.0085  169.0786 C.ar    1  UNL1        0.0206
      7 C         142.6000  139.5219  170.4878 C.ar    1  UNL1        0.0016
      8 C         142.0095  140.8678  170.7876 C.ar    1  UNL1        0.0054
      9 C         141.4386  141.7004  169.6782 C.ar    1  UNL1        0.0887
     10 C         141.4582  141.1870  168.2690 C.ar    1  UNL1        0.0829
     11 N         140.9730  141.7782  166.9785 N.ar    1  UNL1       -0.3061
     12 C         140.3042  143.0827  166.6609 C.3     1  UNL1        0.1291
     13 C         139.9259  143.4066  165.2460 C.3     1  UNL1        0.1183
     14 N         140.2165  142.4261  164.1487 N.am    1  UNL1       -0.2716
     15 C         140.8482  143.0463  169.9780 C.3     1  UNL1        0.4200
     16 F         140.2577  144.3922  170.2778 F       1  UNL1       -0.1658
     17 F         139.4727  142.4484  169.9533 F       1  UNL1       -0.1658
     18 F         142.2237  143.6442  170.0027 F       1  UNL1       -0.1658
     19 C         139.8382  142.7501  162.7338 C.3     1  UNL1        0.0938
     20 C         139.8107  144.1772  162.2728 C.3     1  UNL1        0.0199
     21 C         138.8625  145.3276  162.4395 C.3     1  UNL1        0.0017
     22 C         139.7717  146.1954  161.6209 C.3     1  UNL1        0.0001
     23 C         140.7198  145.0451  161.4542 C.3     1  UNL1        0.0017
@<TRIPOS>BOND
     1     1     2    2
     2     2     3    1
     3     3     4   ar
     4     4     5   ar
     5     5     6   ar
     6     6     7   ar
     7     7     8   ar
     8     8     9   ar
     9     9    15    1
    10    15    16    1
    11    15    17    1
    12    15    18    1
    13     9    10   ar
    14    10    11   ar
    15    11    12    1
    16    12    13    1
    17    13    14    1
    18    14    19    1
    19    19    20    1
    20    20    21    1
    21    21    22    1
    22    22    23    1
    23    14     2   am
    24    23    20    1
    25    11     3   ar
    26    10     5   ar
@<TRIPOS>MOLECULE
*****
 23 26 0 0 0
SMALL
GASTEIGER

@<TRIPOS>ATOM
      1 O         143.1745  138.1006  166.2272 O.2     1  UNL1       -0.2666
      2 C         142.9870  139.5656  165.9652 C.2     1  UNL1        0.2834
      3 C         143.2187  140.1172  164.5897 C.ar    1  UNL1        0.1985
      4 N         143.6341  139.4659  163.3039 N.ar    1  UNL1       -0.2227
      5 C         143.7033  140.5283  162.2472 C.ar    1  UNL1        0.0988
      6 C         144.0575  140.4737  160.7907 C.ar    1  UNL1        0.0206
      7 C         144.0391  141.7270  159.9669 C.ar    1  UNL1        0.0016
      8 C         143.6665  143.0350  160.5997 C.ar    1  UNL1        0.0054
      9 C         143.3123  143.0896  162.0562 C.ar    1  UNL1        0.0887
     10 C         143.3307  141.8363  162.8800 C.ar    1  UNL1        0.0829
     11 N         143.0312  141.5822  164.3277 N.ar    1  UNL1       -0.3061
     12 C         142.6120  142.4955  165.4412 C.3     1  UNL1        0.1291
     13 C         142.3802  141.9439  166.8167 C.3     1  UNL1        0.1183
     14 N         142.5677  140.4789  167.0787 N.am    1  UNL1       -0.2716
     15 C         142.9397  144.3976  162.6889 C.3     1  UNL1        0.4200
     16 F         142.5670  145.7056  163.3217 F       1  UNL1       -0.1658
     17 F         141.4873  144.0819  162.4863 F       1  UNL1       -0.1658
     18 F         144.3920  144.7133  162.8916 F       1  UNL1       -0.1658
     19 C         142.3360  139.9273  168.4542 C.3     1  UNL1        0.0938
     20 C         140.9878  140.0602  169.0983 C.3     1  UNL1        0.0199
     21 C         140.4838  140.0722  170.5111 C.3     1  UNL1        0.0017
     22 C         139.0813  140.2482  170.0091 C.3     1  UNL1        0.0001
     23 C         139.5853  140.2362  168.5965 C.3     1  UNL1        0.0017
@<TRIPOS>BOND
     1     1     2    2
     2     2     3    1
     3     3     4   ar
     4     4     5   ar
     5     5     6   ar
     6     6     7   ar
     7     7     8   ar
     8     8     9   ar
     9     9    15    1
    10    15    16    1
    11    15    17    1
    12    15    18    1
    13     9    10   ar
    14    10    11   ar
    15    11    12    1
    16    12    13    1
    17    13    14    1
    18    14    19    1
    19    19    20    1
    20    20    21    1
    21    21    22    1
    22    22    23    1
    23    14     2   am
    24    23    20    1
    25    11     3   ar
    26    10     5   ar
@<TRIPOS>MOLECULE
*****
 23 26 0 0 0
SMALL
GASTEIGER

@<TRIPOS>ATOM
      1 O         138.9413  139.0452  157.9728 O.2     1  UNL1       -0.2666
      2 C         138.7415  140.0796  159.0405 C.2     1  UNL1        0.2834
      3 C         138.7251  139.6736  160.4844 C.ar    1  UNL1        0.1985
      4 N         138.8786  138.3401  161.1539 N.ar    1  UNL1       -0.2227
      5 C         138.7736  138.5504  162.6354 C.ar    1  UNL1        0.0988
      6 C         138.8486  137.5984  163.7921 C.ar    1  UNL1        0.0206
      7 C         138.7053  138.1098  165.1949 C.ar    1  UNL1        0.0016
      8 C         138.4870  139.5732  165.4410 C.ar    1  UNL1        0.0054
      9 C         138.4120  140.5253  164.2843 C.ar    1  UNL1        0.0887
     10 C         138.5553  140.0139  162.8815 C.ar    1  UNL1        0.0829
     11 N         138.5253  140.7081  161.5522 N.ar    1  UNL1       -0.3061
     12 C         138.3420  142.1485  161.1760 C.3     1  UNL1        0.1291
     13 C         138.3583  142.5545  159.7320 C.3     1  UNL1        0.1183
     14 N         138.5581  141.5201  158.6643 N.am    1  UNL1       -0.2716
     15 C         138.1937  141.9888  164.5305 C.3     1  UNL1        0.4200
     16 F         137.9754  143.4523  164.7766 F       1  UNL1       -0.1658
     17 F         136.8333  141.8908  163.9062 F       1  UNL1       -0.1658
     18 F         139.5541  142.0867  165.1547 F       1  UNL1       -0.1658
     19 C         138.5745  141.9260  157.2204 C.3     1  UNL1        0.0938
     20 C         137.3042  141.9118  156.4228 C.3     1  UNL1        0.0199
     21 C         136.1453  140.9685  156.2906 C.3     1  UNL1        0.0017
     22 C         135.5078  141.8915  155.2949 C.3     1  UNL1        0.0001
     23 C         136.6665  142.8346  155.4271 C.3     1  UNL1        0.0017
@<TRIPOS>BOND
     1     1     2    2
     2     2     3    1
     3     3     4   ar
     4     4     5   ar
     5     5     6   ar
     6     6     7   ar
     7     7     8   ar
     8     8     9   ar
     9     9    15    1
    10    15    16    1
    11    15    17    1
    12    15    18    1
    13     9    10   ar
    14    10    11   ar
    15    11    12    1
    16    12    13    1
    17    13    14    1
    18    14    19    1
    19    19    20    1
    20    20    21    1
    21    21    22    1
    22    22    23    1
    23    14     2   am
    24    23    20    1
    25    11     3   ar
    26    10     5   ar
