@<TRIPOS>MOLECULE
*****
 35 38 0 0 0
SMALL
GASTEIGER

@<TRIPOS>ATOM
      1 C         142.4199  138.1987  161.5224 C.ar    1  UNL1        0.0393
      2 C         143.4970  138.4708  162.5303 C.ar    1  UNL1        0.0779
      3 N         142.8580  138.5343  163.8859 N.ar    1  UNL1       -0.3177
      4 C         141.3859  138.3015  163.7158 C.ar    1  UNL1        0.0604
      5 C         140.2571  138.2515  164.7022 C.ar    1  UNL1        0.0172
      6 C         138.8575  137.9942  164.2280 C.ar    1  UNL1        0.0015
      7 C         138.5868  137.7868  162.7673 C.ar    1  UNL1        0.0001
      8 C         139.7157  137.8367  161.7808 C.ar    1  UNL1        0.0015
      9 C         141.1152  138.0940  162.2550 C.ar    1  UNL1        0.0188
     10 N         141.9106  138.9888  159.1003 N.2     1  UNL1       -0.1636
     11 C         142.6136  138.0562  160.0418 C.2     1  UNL1        0.1204
     12 N         142.1042  138.8464  157.6197 N.pl3   1  UNL1       -0.1361
     13 H         142.1691  139.6483  157.0523 H       1  UNL1        0.1966
     14 S         142.1991  137.4821  157.0036 S.O2    1  UNL1        0.0877
     15 O         140.7260  137.2871  157.2084 O.2     1  UNL1       -0.1487
     16 O         143.6723  137.6771  156.7988 O.2     1  UNL1       -0.1487
     17 C         142.5789  132.0247  154.5393 C.3     1  UNL1        0.0310
     18 C         142.4840  133.3890  155.1554 C.ar    1  UNL1       -0.0218
     19 C         141.3987  134.3316  154.7268 C.ar    1  UNL1       -0.0029
     20 C         141.3037  135.6959  155.3428 C.ar    1  UNL1        0.0199
     21 C         142.2940  136.1178  156.3875 C.ar    1  UNL1        0.1266
     22 C         143.3793  135.1752  156.8161 C.ar    1  UNL1        0.0199
     23 C         143.4743  133.8108  156.2001 C.ar    1  UNL1       -0.0029
     24 C         143.5665  138.7863  165.1837 C.3     1  UNL1        0.1920
     25 C         143.1930  139.9713  166.0243 C.2     1  UNL1        0.2492
     26 O         143.4807  141.3593  165.5339 O.2     1  UNL1       -0.2727
     27 N         142.5318  139.7681  167.3553 N.am    1  UNL1       -0.2817
     28 H         142.3429  138.8571  167.6772 H       1  UNL1        0.1549
     29 C         142.1583  140.9530  168.1958 C.ar    1  UNL1        0.0610
     30 C         143.1848  141.6010  169.0770 C.ar    1  UNL1        0.0155
     31 C         142.8112  142.7859  169.9174 C.ar    1  UNL1        0.0013
     32 C         141.4112  143.3229  169.8768 C.ar    1  UNL1        0.0009
     33 C         140.3847  142.6749  168.9957 C.ar    1  UNL1        0.0126
     34 C         140.7583  141.4899  168.1552 C.ar    1  UNL1        0.0711
     35 CL        139.7318  140.8419  167.2740 Cl      1  UNL1       -0.0810
@<TRIPOS>BOND
     1    17    18    1
     2    18    19   ar
     3    19    20   ar
     4    20    21   ar
     5    21    14    1
     6    14    15    2
     7    14    16    2
     8    14    12    1
     9    12    10    1
    10    10    11    2
    11    11     1    1
    12     1     2   ar
    13     2     3   ar
    14     3    24    1
    15    24    25    1
    16    25    26    2
    17    25    27   am
    18    27    29    1
    19    29    30   ar
    20    30    31   ar
    21    31    32   ar
    22    32    33   ar
    23    33    34   ar
    24    34    35    1
    25     3     4   ar
    26     4     5   ar
    27     5     6   ar
    28     6     7   ar
    29     7     8   ar
    30     8     9   ar
    31    21    22   ar
    32    22    23   ar
    33    23    18   ar
    34     9     1   ar
    35    34    29   ar
    36     9     4   ar
    37    12    13    1
    38    27    28    1
@<TRIPOS>MOLECULE
*****
 35 38 0 0 0
SMALL
GASTEIGER

@<TRIPOS>ATOM
      1 C         142.7887  139.1319  161.5505 C.ar    1  UNL1        0.0393
      2 C         142.2905  138.2293  162.6400 C.ar    1  UNL1        0.0779
      3 N         142.9196  138.6678  163.9291 N.ar    1  UNL1       -0.3177
      4 C         143.8067  139.8415  163.6363 C.ar    1  UNL1        0.0604
      5 C         144.6776  140.6861  164.5184 C.ar    1  UNL1        0.0172
      6 C         145.4676  141.8175  163.9304 C.ar    1  UNL1        0.0015
      7 C         145.3867  142.1043  162.4603 C.ar    1  UNL1        0.0001
      8 C         144.5158  141.2597  161.5782 C.ar    1  UNL1        0.0015
      9 C         143.7258  140.1283  162.1662 C.ar    1  UNL1        0.0188
     10 N         143.4081  138.5432  159.0969 N.2     1  UNL1       -0.1636
     11 C         142.4155  139.0521  160.0998 C.2     1  UNL1        0.1204
     12 N         143.0349  138.4634  157.6462 N.pl3   1  UNL1       -0.1361
     13 H         143.0133  139.2807  157.0978 H       1  UNL1        0.1966
     14 S         142.6944  137.1383  157.0312 S.O2    1  UNL1        0.0877
     15 O         141.2746  137.2897  157.4909 O.2     1  UNL1       -0.1487
     16 O         144.1143  136.9870  156.5716 O.2     1  UNL1       -0.1487
     17 C         141.3331  131.8378  154.5712 C.3     1  UNL1        0.0310
     18 C         141.6735  133.1629  155.1862 C.ar    1  UNL1       -0.0218
     19 C         141.0425  134.4180  154.6603 C.ar    1  UNL1       -0.0029
     20 C         141.3828  135.7432  155.2753 C.ar    1  UNL1        0.0199
     21 C         142.3541  135.8132  156.4162 C.ar    1  UNL1        0.1266
     22 C         142.9850  134.5581  156.9421 C.ar    1  UNL1        0.0199
     23 C         142.6447  133.2329  156.3272 C.ar    1  UNL1       -0.0029
     24 C         142.7002  138.0426  165.2748 C.3     1  UNL1        0.1920
     25 C         142.3265  138.8994  166.4480 C.2     1  UNL1        0.2492
     26 O         143.2153  138.9467  167.6554 O.2     1  UNL1       -0.2727
     27 N         141.0641  139.7088  166.4137 N.am    1  UNL1       -0.2817
     28 H         140.4808  139.6777  165.6213 H       1  UNL1        0.1549
     29 C         140.6905  140.5655  167.5869 C.ar    1  UNL1        0.0610
     30 C         139.7267  140.0510  168.6147 C.ar    1  UNL1        0.0155
     31 C         139.3532  140.9078  169.7879 C.ar    1  UNL1        0.0013
     32 C         139.9433  142.2791  169.9333 C.ar    1  UNL1        0.0009
     33 C         140.9071  142.7936  168.9055 C.ar    1  UNL1        0.0126
     34 C         141.2807  141.9368  167.7323 C.ar    1  UNL1        0.0711
     35 CL        142.2445  142.4513  166.7045 Cl      1  UNL1       -0.0810
@<TRIPOS>BOND
     1    17    18    1
     2    18    19   ar
     3    19    20   ar
     4    20    21   ar
     5    21    14    1
     6    14    15    2
     7    14    16    2
     8    14    12    1
     9    12    10    1
    10    10    11    2
    11    11     1    1
    12     1     2   ar
    13     2     3   ar
    14     3    24    1
    15    24    25    1
    16    25    26    2
    17    25    27   am
    18    27    29    1
    19    29    30   ar
    20    30    31   ar
    21    31    32   ar
    22    32    33   ar
    23    33    34   ar
    24    34    35    1
    25     3     4   ar
    26     4     5   ar
    27     5     6   ar
    28     6     7   ar
    29     7     8   ar
    30     8     9   ar
    31    21    22   ar
    32    22    23   ar
    33    23    18   ar
    34     9     1   ar
    35    34    29   ar
    36     9     4   ar
    37    12    13    1
    38    27    28    1
@<TRIPOS>MOLECULE
*****
 35 38 0 0 0
SMALL
GASTEIGER

@<TRIPOS>ATOM
      1 C         138.5461  142.5448  157.9324 C.ar    1  UNL1        0.0393
      2 C         138.4393  142.3278  159.4128 C.ar    1  UNL1        0.0779
      3 N         139.3891  143.2712  160.0892 N.ar    1  UNL1       -0.3177
      4 C         140.0829  144.0714  159.0270 C.ar    1  UNL1        0.0604
      5 C         141.1218  145.1508  159.1013 C.ar    1  UNL1        0.0172
      6 C         141.6397  145.7812  157.8426 C.ar    1  UNL1        0.0015
      7 C         141.1186  145.3323  156.5096 C.ar    1  UNL1        0.0001
      8 C         140.0797  144.2529  156.4352 C.ar    1  UNL1        0.0015
      9 C         139.5619  143.6224  157.6939 C.ar    1  UNL1        0.0188
     10 N         136.6748  140.8690  157.2685 N.2     1  UNL1       -0.1636
     11 C         137.7728  141.8128  156.8759 C.2     1  UNL1        0.1204
     12 N         135.9015  140.1370  156.2121 N.pl3   1  UNL1       -0.1361
     13 H         136.3766  139.5995  155.5378 H       1  UNL1        0.1966
     14 S         134.4044  140.2240  156.1829 S.O2    1  UNL1        0.0877
     15 O         134.3411  139.5900  157.5409 O.2     1  UNL1       -0.1487
     16 O         134.4677  140.8579  154.8249 O.2     1  UNL1       -0.1487
     17 C         128.4156  140.5720  156.0661 C.3     1  UNL1        0.0310
     18 C         129.9128  140.4850  156.0953 C.ar    1  UNL1       -0.0218
     19 C         130.5850  139.3744  156.8467 C.ar    1  UNL1       -0.0029
     20 C         132.0821  139.2874  156.8760 C.ar    1  UNL1        0.0199
     21 C         132.9072  140.3109  156.1537 C.ar    1  UNL1        0.1266
     22 C         132.2350  141.4215  155.4023 C.ar    1  UNL1        0.0199
     23 C         130.7378  141.5086  155.3730 C.ar    1  UNL1       -0.0029
     24 C         139.6070  143.3932  161.5683 C.3     1  UNL1        0.1920
     25 C         139.6844  142.1602  162.4192 C.2     1  UNL1        0.2492
     26 O         141.0151  141.6655  162.9035 O.2     1  UNL1       -0.2727
     27 N         138.4312  141.4219  162.7857 N.am    1  UNL1       -0.2817
     28 H         137.5578  141.7466  162.4678 H       1  UNL1        0.1549
     29 C         138.5087  140.1891  163.6365 C.ar    1  UNL1        0.0610
     30 C         138.2774  140.2827  165.1156 C.ar    1  UNL1        0.0155
     31 C         138.3550  139.0498  165.9664 C.ar    1  UNL1        0.0013
     32 C         138.6638  137.7231  165.3381 C.ar    1  UNL1        0.0009
     33 C         138.8951  137.6295  163.8590 C.ar    1  UNL1        0.0126
     34 C         138.8175  138.8625  163.0082 C.ar    1  UNL1        0.0711
     35 CL        139.0488  138.7688  161.5291 Cl      1  UNL1       -0.0810
@<TRIPOS>BOND
     1    17    18    1
     2    18    19   ar
     3    19    20   ar
     4    20    21   ar
     5    21    14    1
     6    14    15    2
     7    14    16    2
     8    14    12    1
     9    12    10    1
    10    10    11    2
    11    11     1    1
    12     1     2   ar
    13     2     3   ar
    14     3    24    1
    15    24    25    1
    16    25    26    2
    17    25    27   am
    18    27    29    1
    19    29    30   ar
    20    30    31   ar
    21    31    32   ar
    22    32    33   ar
    23    33    34   ar
    24    34    35    1
    25     3     4   ar
    26     4     5   ar
    27     5     6   ar
    28     6     7   ar
    29     7     8   ar
    30     8     9   ar
    31    21    22   ar
    32    22    23   ar
    33    23    18   ar
    34     9     1   ar
    35    34    29   ar
    36     9     4   ar
    37    12    13    1
    38    27    28    1
@<TRIPOS>MOLECULE
*****
 35 38 0 0 0
SMALL
GASTEIGER

@<TRIPOS>ATOM
      1 C         142.1690  138.1697  160.6243 C.ar    1  UNL1        0.0393
      2 C         142.8875  137.7267  159.3844 C.ar    1  UNL1        0.0779
      3 N         142.0600  138.1301  158.2001 N.ar    1  UNL1       -0.3177
      4 C         140.8301  138.8225  158.7080 C.ar    1  UNL1        0.0604
      5 C         139.6577  139.4338  157.9999 C.ar    1  UNL1        0.0172
      6 C         138.5525  140.0695  158.7900 C.ar    1  UNL1        0.0015
      7 C         138.6198  140.0940  160.2883 C.ar    1  UNL1        0.0001
      8 C         139.7923  139.4827  160.9965 C.ar    1  UNL1        0.0015
      9 C         140.8975  138.8469  160.2063 C.ar    1  UNL1        0.0188
     10 N         143.2515  139.1131  162.7896 N.2     1  UNL1       -0.1636
     11 C         142.6393  137.9705  162.0346 C.2     1  UNL1        0.1204
     12 N         143.7218  138.9139  164.1999 N.pl3   1  UNL1       -0.1361
     13 H         144.6353  138.5902  164.3731 H       1  UNL1        0.1966
     14 S         142.8003  139.2078  165.3464 S.O2    1  UNL1        0.0877
     15 O         143.3447  138.0230  166.0878 O.2     1  UNL1       -0.1487
     16 O         142.2559  140.3928  164.6049 O.2     1  UNL1       -0.1487
     17 C         139.1139  140.3839  169.9320 C.3     1  UNL1        0.0310
     18 C         140.0355  140.0899  168.7856 C.ar    1  UNL1       -0.0218
     19 C         141.5058  139.9209  169.0296 C.ar    1  UNL1       -0.0029
     20 C         142.4275  139.6269  167.8833 C.ar    1  UNL1        0.0199
     21 C         141.8788  139.5019  166.4928 C.ar    1  UNL1        0.1266
     22 C         140.4084  139.6709  166.2488 C.ar    1  UNL1        0.0199
     23 C         139.4867  139.9649  167.3951 C.ar    1  UNL1       -0.0029
     24 C         142.4024  137.8843  156.7605 C.3     1  UNL1        0.1920
     25 C         143.0222  136.5819  156.3487 C.2     1  UNL1        0.2492
     26 O         144.4233  136.5540  155.8136 O.2     1  UNL1       -0.2727
     27 N         142.2410  135.3073  156.4721 N.am    1  UNL1       -0.2817
     28 H         141.3215  135.3256  156.8233 H       1  UNL1        0.1549
     29 C         142.8609  134.0049  156.0604 C.ar    1  UNL1        0.0610
     30 C         142.5639  133.4271  154.7084 C.ar    1  UNL1        0.0155
     31 C         143.1838  132.1247  154.2967 C.ar    1  UNL1        0.0013
     32 C         144.1008  131.4001  155.2370 C.ar    1  UNL1        0.0009
     33 C         144.3979  131.9780  156.5890 C.ar    1  UNL1        0.0126
     34 C         143.7779  133.2804  157.0007 C.ar    1  UNL1        0.0711
     35 CL        144.0749  133.8583  158.3527 Cl      1  UNL1       -0.0810
@<TRIPOS>BOND
     1    17    18    1
     2    18    19   ar
     3    19    20   ar
     4    20    21   ar
     5    21    14    1
     6    14    15    2
     7    14    16    2
     8    14    12    1
     9    12    10    1
    10    10    11    2
    11    11     1    1
    12     1     2   ar
    13     2     3   ar
    14     3    24    1
    15    24    25    1
    16    25    26    2
    17    25    27   am
    18    27    29    1
    19    29    30   ar
    20    30    31   ar
    21    31    32   ar
    22    32    33   ar
    23    33    34   ar
    24    34    35    1
    25     3     4   ar
    26     4     5   ar
    27     5     6   ar
    28     6     7   ar
    29     7     8   ar
    30     8     9   ar
    31    21    22   ar
    32    22    23   ar
    33    23    18   ar
    34     9     1   ar
    35    34    29   ar
    36     9     4   ar
    37    12    13    1
    38    27    28    1
@<TRIPOS>MOLECULE
*****
 35 38 0 0 0
SMALL
GASTEIGER

@<TRIPOS>ATOM
      1 C         138.8999  142.7275  157.5642 C.ar    1  UNL1        0.0393
      2 C         139.3452  142.9968  158.9711 C.ar    1  UNL1        0.0779
      3 N         140.0605  144.3151  158.9865 N.ar    1  UNL1       -0.3177
      4 C         140.0573  144.8606  157.5892 C.ar    1  UNL1        0.0604
      5 C         140.6149  146.1240  157.0037 C.ar    1  UNL1        0.0172
      6 C         140.4552  146.4062  155.5392 C.ar    1  UNL1        0.0015
      7 C         139.7379  145.4250  154.6602 C.ar    1  UNL1        0.0001
      8 C         139.1803  144.1616  155.2457 C.ar    1  UNL1        0.0015
      9 C         139.3400  143.8794  156.7102 C.ar    1  UNL1        0.0188
     10 N         136.6947  141.6322  156.7349 N.2     1  UNL1       -0.1636
     11 C         138.1467  141.5185  157.0940 C.2     1  UNL1        0.1204
     12 N         135.9415  140.4233  156.2646 N.pl3   1  UNL1       -0.1361
     13 H         136.4315  139.6229  155.9672 H       1  UNL1        0.1966
     14 S         134.4416  140.4339  156.2476 S.O2    1  UNL1        0.0877
     15 O         134.4215  139.5600  157.4666 O.2     1  UNL1       -0.1487
     16 O         134.4617  141.3078  155.0286 O.2     1  UNL1       -0.1487
     17 C         128.4422  140.4764  156.1793 C.3     1  UNL1        0.0310
     18 C         129.9420  140.4657  156.1964 C.ar    1  UNL1       -0.0218
     19 C         130.7085  141.4515  155.3654 C.ar    1  UNL1       -0.0029
     20 C         132.2084  141.4410  155.3824 C.ar    1  UNL1        0.0199
     21 C         132.9418  140.4445  156.2305 C.ar    1  UNL1        0.1266
     22 C         132.1753  139.4587  157.0616 C.ar    1  UNL1        0.0199
     23 C         130.6754  139.4693  157.0445 C.ar    1  UNL1       -0.0029
     24 C         140.6717  144.9726  160.1882 C.3     1  UNL1        0.1920
     25 C         141.4648  144.1579  161.1667 C.2     1  UNL1        0.2492
     26 O         140.7604  143.2569  162.1373 O.2     1  UNL1       -0.2727
     27 N         142.9623  144.2442  161.1747 N.am    1  UNL1       -0.2817
     28 H         143.4247  144.8356  160.5377 H       1  UNL1        0.1549
     29 C         143.7553  143.4296  162.1532 C.ar    1  UNL1        0.0610
     30 C         144.3633  142.1268  161.7255 C.ar    1  UNL1        0.0155
     31 C         145.1563  141.3121  162.7041 C.ar    1  UNL1        0.0013
     32 C         145.3412  141.8003  164.1103 C.ar    1  UNL1        0.0009
     33 C         144.7332  143.1031  164.5380 C.ar    1  UNL1        0.0126
     34 C         143.9402  143.9178  163.5594 C.ar    1  UNL1        0.0711
     35 CL        143.3321  145.2206  163.9870 Cl      1  UNL1       -0.0810
@<TRIPOS>BOND
     1    17    18    1
     2    18    19   ar
     3    19    20   ar
     4    20    21   ar
     5    21    14    1
     6    14    15    2
     7    14    16    2
     8    14    12    1
     9    12    10    1
    10    10    11    2
    11    11     1    1
    12     1     2   ar
    13     2     3   ar
    14     3    24    1
    15    24    25    1
    16    25    26    2
    17    25    27   am
    18    27    29    1
    19    29    30   ar
    20    30    31   ar
    21    31    32   ar
    22    32    33   ar
    23    33    34   ar
    24    34    35    1
    25     3     4   ar
    26     4     5   ar
    27     5     6   ar
    28     6     7   ar
    29     7     8   ar
    30     8     9   ar
    31    21    22   ar
    32    22    23   ar
    33    23    18   ar
    34     9     1   ar
    35    34    29   ar
    36     9     4   ar
    37    12    13    1
    38    27    28    1
@<TRIPOS>MOLECULE
*****
 35 38 0 0 0
SMALL
GASTEIGER

@<TRIPOS>ATOM
      1 C         142.5057  138.1271  161.5406 C.ar    1  UNL1        0.0393
      2 C         143.5541  138.3924  162.5800 C.ar    1  UNL1        0.0779
      3 N         142.8683  138.5197  163.9080 N.ar    1  UNL1       -0.3177
      4 C         141.3961  138.3330  163.6893 C.ar    1  UNL1        0.0604
      5 C         140.2307  138.3526  164.6334 C.ar    1  UNL1        0.0172
      6 C         138.8412  138.1295  164.1143 C.ar    1  UNL1        0.0015
      7 C         138.6171  137.8869  162.6511 C.ar    1  UNL1        0.0001
      8 C         139.7825  137.8673  161.7070 C.ar    1  UNL1        0.0015
      9 C         141.1720  138.0903  162.2261 C.ar    1  UNL1        0.0188
     10 N         142.5106  139.0639  159.1172 N.2     1  UNL1       -0.1636
     11 C         142.7484  137.9326  160.0732 C.2     1  UNL1        0.1204
     12 N         142.7533  138.8695  157.6498 N.pl3   1  UNL1       -0.1361
     13 H         142.2266  138.2067  157.1473 H       1  UNL1        0.1966
     14 S         143.7985  139.6849  156.9480 S.O2    1  UNL1        0.0877
     15 O         143.2665  139.2264  155.6226 O.2     1  UNL1       -0.1487
     16 O         144.3305  140.1435  158.2735 O.2     1  UNL1       -0.1487
     17 C         147.9796  142.9469  154.1412 C.3     1  UNL1        0.0310
     18 C         146.9343  142.1314  154.8428 C.ar    1  UNL1       -0.0218
     19 C         146.6649  142.3525  156.3018 C.ar    1  UNL1       -0.0029
     20 C         145.6197  141.5371  157.0035 C.ar    1  UNL1        0.0199
     21 C         144.8438  140.5004  156.2464 C.ar    1  UNL1        0.1266
     22 C         145.1131  140.2793  154.7874 C.ar    1  UNL1        0.0199
     23 C         146.1584  141.0947  154.0856 C.ar    1  UNL1       -0.0029
     24 C         143.5372  138.7867  165.2238 C.3     1  UNL1        0.1920
     25 C         143.1300  139.9743  166.0448 C.2     1  UNL1        0.2492
     26 O         143.2369  141.3557  165.4701 O.2     1  UNL1       -0.2727
     27 N         142.6159  139.7804  167.4406 N.am    1  UNL1       -0.2817
     28 H         142.5457  138.8738  167.8178 H       1  UNL1        0.1549
     29 C         142.2087  140.9679  168.2615 C.ar    1  UNL1        0.0610
     30 C         143.2015  141.6248  169.1741 C.ar    1  UNL1        0.0155
     31 C         142.7942  142.8123  169.9950 C.ar    1  UNL1        0.0013
     32 C         141.3942  143.3431  169.9033 C.ar    1  UNL1        0.0009
     33 C         140.4014  142.6861  168.9907 C.ar    1  UNL1        0.0126
     34 C         140.8087  141.4985  168.1697 C.ar    1  UNL1        0.0711
     35 CL        139.8159  140.8416  167.2571 Cl      1  UNL1       -0.0810
@<TRIPOS>BOND
     1    17    18    1
     2    18    19   ar
     3    19    20   ar
     4    20    21   ar
     5    21    14    1
     6    14    15    2
     7    14    16    2
     8    14    12    1
     9    12    10    1
    10    10    11    2
    11    11     1    1
    12     1     2   ar
    13     2     3   ar
    14     3    24    1
    15    24    25    1
    16    25    26    2
    17    25    27   am
    18    27    29    1
    19    29    30   ar
    20    30    31   ar
    21    31    32   ar
    22    32    33   ar
    23    33    34   ar
    24    34    35    1
    25     3     4   ar
    26     4     5   ar
    27     5     6   ar
    28     6     7   ar
    29     7     8   ar
    30     8     9   ar
    31    21    22   ar
    32    22    23   ar
    33    23    18   ar
    34     9     1   ar
    35    34    29   ar
    36     9     4   ar
    37    12    13    1
    38    27    28    1
@<TRIPOS>MOLECULE
*****
 35 38 0 0 0
SMALL
GASTEIGER

@<TRIPOS>ATOM
      1 C         142.6529  138.6419  162.1437 C.ar    1  UNL1        0.0393
      2 C         143.6715  138.7321  163.2411 C.ar    1  UNL1        0.0779
      3 N         142.9860  138.4149  164.5370 N.ar    1  UNL1       -0.3177
      4 C         141.5437  138.1288  164.2406 C.ar    1  UNL1        0.0604
      5 C         140.3912  137.7586  165.1264 C.ar    1  UNL1        0.0172
      6 C         139.0329  137.5287  164.5331 C.ar    1  UNL1        0.0015
      7 C         138.8270  137.6691  163.0539 C.ar    1  UNL1        0.0001
      8 C         139.9795  138.0392  162.1681 C.ar    1  UNL1        0.0015
      9 C         141.3378  138.2691  162.7614 C.ar    1  UNL1        0.0188
     10 N         142.2695  140.0543  159.9970 N.2     1  UNL1       -0.1636
     11 C         142.9050  138.8824  160.6847 C.2     1  UNL1        0.1204
     12 N         142.5216  140.2948  158.5380 N.pl3   1  UNL1       -0.1361
     13 H         142.7451  141.1992  158.2196 H       1  UNL1        0.1966
     14 S         142.4331  139.1574  157.5642 S.O2    1  UNL1        0.0877
     15 O         140.9475  139.1020  157.7637 O.2     1  UNL1       -0.1487
     16 O         143.9188  139.2127  157.3647 O.2     1  UNL1       -0.1487
     17 C         142.0796  134.6074  153.6689 C.3     1  UNL1        0.0310
     18 C         142.1680  135.7449  154.6428 C.ar    1  UNL1       -0.0218
     19 C         141.3917  137.0046  154.3970 C.ar    1  UNL1       -0.0029
     20 C         141.4800  138.1421  155.3707 C.ar    1  UNL1        0.0199
     21 C         142.3447  138.0199  156.5904 C.ar    1  UNL1        0.1266
     22 C         143.1210  136.7602  156.8361 C.ar    1  UNL1        0.0199
     23 C         143.0327  135.6226  155.8623 C.ar    1  UNL1       -0.0029
     24 C         143.6297  138.3885  165.8916 C.3     1  UNL1        0.1920
     25 C         142.9533  139.0486  167.0565 C.2     1  UNL1        0.2492
     26 O         143.2232  138.5678  168.4515 O.2     1  UNL1       -0.2727
     27 N         142.0069  140.1893  166.8263 N.am    1  UNL1       -0.2817
     28 H         141.8296  140.5048  165.9107 H       1  UNL1        0.1549
     29 C         141.3305  140.8493  167.9911 C.ar    1  UNL1        0.0610
     30 C         139.9943  140.3555  168.4609 C.ar    1  UNL1        0.0155
     31 C         139.3180  141.0155  169.6258 C.ar    1  UNL1        0.0013
     32 C         139.9778  142.1694  170.3209 C.ar    1  UNL1        0.0009
     33 C         141.3140  142.6632  169.8512 C.ar    1  UNL1        0.0126
     34 C         141.9904  142.0032  168.6862 C.ar    1  UNL1        0.0711
     35 CL        143.3266  142.4970  168.2164 Cl      1  UNL1       -0.0810
@<TRIPOS>BOND
     1    17    18    1
     2    18    19   ar
     3    19    20   ar
     4    20    21   ar
     5    21    14    1
     6    14    15    2
     7    14    16    2
     8    14    12    1
     9    12    10    1
    10    10    11    2
    11    11     1    1
    12     1     2   ar
    13     2     3   ar
    14     3    24    1
    15    24    25    1
    16    25    26    2
    17    25    27   am
    18    27    29    1
    19    29    30   ar
    20    30    31   ar
    21    31    32   ar
    22    32    33   ar
    23    33    34   ar
    24    34    35    1
    25     3     4   ar
    26     4     5   ar
    27     5     6   ar
    28     6     7   ar
    29     7     8   ar
    30     8     9   ar
    31    21    22   ar
    32    22    23   ar
    33    23    18   ar
    34     9     1   ar
    35    34    29   ar
    36     9     4   ar
    37    12    13    1
    38    27    28    1
@<TRIPOS>MOLECULE
*****
 35 38 0 0 0
SMALL
GASTEIGER

@<TRIPOS>ATOM
      1 C         138.6541  141.2280  158.8725 C.ar    1  UNL1        0.0393
      2 C         137.6174  141.4849  157.8192 C.ar    1  UNL1        0.0779
      3 N         137.8590  140.5295  156.6884 N.ar    1  UNL1       -0.3177
      4 C         139.0449  139.6821  157.0427 C.ar    1  UNL1        0.0604
      5 C         139.7408  138.5733  156.3106 C.ar    1  UNL1        0.0172
      6 C         140.9281  137.8961  156.9283 C.ar    1  UNL1        0.0015
      7 C         141.4195  138.3278  158.2782 C.ar    1  UNL1        0.0001
      8 C         140.7236  139.4366  159.0103 C.ar    1  UNL1        0.0015
      9 C         139.5363  140.1138  158.3926 C.ar    1  UNL1        0.0188
     10 N         137.6975  142.8853  160.6300 N.2     1  UNL1       -0.1636
     11 C         138.7854  141.9572  160.1767 C.2     1  UNL1        0.1204
     12 N         137.8289  143.6145  161.9342 N.pl3   1  UNL1       -0.1361
     13 H         137.6194  144.5751  161.9844 H       1  UNL1        0.1966
     14 S         138.2795  142.8800  163.1620 S.O2    1  UNL1        0.0877
     15 O         139.4708  143.7854  163.2666 O.2     1  UNL1       -0.1487
     16 O         137.0881  141.9745  163.0574 O.2     1  UNL1       -0.1487
     17 C         140.0816  139.9417  168.0732 C.3     1  UNL1        0.0310
     18 C         139.6311  140.6763  166.8454 C.ar    1  UNL1       -0.0218
     19 C         138.6583  140.0337  165.9016 C.ar    1  UNL1       -0.0029
     20 C         138.2078  140.7682  164.6738 C.ar    1  UNL1        0.0199
     21 C         138.7300  142.1454  164.3898 C.ar    1  UNL1        0.1266
     22 C         139.7028  142.7880  165.3336 C.ar    1  UNL1        0.0199
     23 C         140.1533  142.0535  166.5614 C.ar    1  UNL1       -0.0029
     24 C         137.0557  140.4376  155.4249 C.3     1  UNL1        0.1920
     25 C         135.5866  140.1409  155.4901 C.2     1  UNL1        0.2492
     26 O         135.0647  138.8245  154.9955 O.2     1  UNL1       -0.2727
     27 N         134.6396  141.1606  156.0499 N.am    1  UNL1       -0.2817
     28 H         134.9822  142.0246  156.3746 H       1  UNL1        0.1549
     29 C         133.1708  140.8638  156.1150 C.ar    1  UNL1        0.0610
     30 C         132.2296  141.5193  155.1483 C.ar    1  UNL1        0.0155
     31 C         130.7607  141.2225  155.2135 C.ar    1  UNL1        0.0013
     32 C         130.2329  140.2702  156.2454 C.ar    1  UNL1        0.0009
     33 C         131.1741  139.6147  157.2121 C.ar    1  UNL1        0.0126
     34 C         132.6431  139.9115  157.1469 C.ar    1  UNL1        0.0711
     35 CL        133.5843  139.2561  158.1135 Cl      1  UNL1       -0.0810
@<TRIPOS>BOND
     1    17    18    1
     2    18    19   ar
     3    19    20   ar
     4    20    21   ar
     5    21    14    1
     6    14    15    2
     7    14    16    2
     8    14    12    1
     9    12    10    1
    10    10    11    2
    11    11     1    1
    12     1     2   ar
    13     2     3   ar
    14     3    24    1
    15    24    25    1
    16    25    26    2
    17    25    27   am
    18    27    29    1
    19    29    30   ar
    20    30    31   ar
    21    31    32   ar
    22    32    33   ar
    23    33    34   ar
    24    34    35    1
    25     3     4   ar
    26     4     5   ar
    27     5     6   ar
    28     6     7   ar
    29     7     8   ar
    30     8     9   ar
    31    21    22   ar
    32    22    23   ar
    33    23    18   ar
    34     9     1   ar
    35    34    29   ar
    36     9     4   ar
    37    12    13    1
    38    27    28    1
@<TRIPOS>MOLECULE
*****
 35 38 0 0 0
SMALL
GASTEIGER

@<TRIPOS>ATOM
      1 C         141.6421  138.9219  158.3028 C.ar    1  UNL1        0.0393
      2 C         141.1995  140.3419  158.1086 C.ar    1  UNL1        0.0779
      3 N         141.7376  141.1550  159.2485 N.ar    1  UNL1       -0.3177
      4 C         142.5127  140.2376  160.1471 C.ar    1  UNL1        0.0604
      5 C         143.2646  140.4806  161.4221 C.ar    1  UNL1        0.0172
      6 C         143.9575  139.3435  162.1125 C.ar    1  UNL1        0.0015
      7 C         143.8985  137.9633  161.5280 C.ar    1  UNL1        0.0001
      8 C         143.1466  137.7203  160.2531 C.ar    1  UNL1        0.0015
      9 C         142.4537  138.8574  159.5626 C.ar    1  UNL1        0.0188
     10 N         142.4198  136.8339  156.9665 N.2     1  UNL1       -0.1636
     11 C         141.3282  137.7687  157.3963 C.2     1  UNL1        0.1204
     12 N         142.1059  135.6807  156.0599 N.pl3   1  UNL1       -0.1361
     13 H         141.5562  135.8223  155.2556 H       1  UNL1        0.1966
     14 S         142.6297  134.3119  156.3790 S.O2    1  UNL1        0.0877
     15 O         143.7558  134.9242  157.1579 O.2     1  UNL1       -0.1487
     16 O         141.5034  133.6995  155.6000 O.2     1  UNL1       -0.1487
     17 C         144.7243  128.8360  157.6550 C.3     1  UNL1        0.0310
     18 C         144.2006  130.2050  157.3360 C.ar    1  UNL1       -0.0218
     19 C         144.9182  131.4199  157.8450 C.ar    1  UNL1       -0.0029
     20 C         144.3946  132.7888  157.5261 C.ar    1  UNL1        0.0199
     21 C         143.1533  132.9429  156.6980 C.ar    1  UNL1        0.1266
     22 C         142.4358  131.7280  156.1890 C.ar    1  UNL1        0.0199
     23 C         142.9594  130.3590  156.5079 C.ar    1  UNL1       -0.0029
     24 C         141.5360  142.6271  159.4537 C.3     1  UNL1        0.1920
     25 C         140.5638  143.1141  160.4871 C.2     1  UNL1        0.2492
     26 O         139.4109  143.9838  160.0814 O.2     1  UNL1       -0.2727
     27 N         140.7445  142.7314  161.9262 N.am    1  UNL1       -0.2817
     28 H         141.5012  142.1607  162.1925 H       1  UNL1        0.1549
     29 C         139.7723  143.2184  162.9595 C.ar    1  UNL1        0.0610
     30 C         138.4841  142.4832  163.1828 C.ar    1  UNL1        0.0155
     31 C         137.5120  142.9703  164.2161 C.ar    1  UNL1        0.0013
     32 C         137.8280  144.1926  165.0261 C.ar    1  UNL1        0.0009
     33 C         139.1163  144.9278  164.8028 C.ar    1  UNL1        0.0126
     34 C         140.0884  144.4407  163.7695 C.ar    1  UNL1        0.0711
     35 CL        141.3767  145.1759  163.5462 Cl      1  UNL1       -0.0810
@<TRIPOS>BOND
     1    17    18    1
     2    18    19   ar
     3    19    20   ar
     4    20    21   ar
     5    21    14    1
     6    14    15    2
     7    14    16    2
     8    14    12    1
     9    12    10    1
    10    10    11    2
    11    11     1    1
    12     1     2   ar
    13     2     3   ar
    14     3    24    1
    15    24    25    1
    16    25    26    2
    17    25    27   am
    18    27    29    1
    19    29    30   ar
    20    30    31   ar
    21    31    32   ar
    22    32    33   ar
    23    33    34   ar
    24    34    35    1
    25     3     4   ar
    26     4     5   ar
    27     5     6   ar
    28     6     7   ar
    29     7     8   ar
    30     8     9   ar
    31    21    22   ar
    32    22    23   ar
    33    23    18   ar
    34     9     1   ar
    35    34    29   ar
    36     9     4   ar
    37    12    13    1
    38    27    28    1
