@<TRIPOS>MOLECULE
*****
 33 38 0 0 0
SMALL
GASTEIGER

@<TRIPOS>ATOM
      1 C         140.6851  141.2513  161.4479 C.ar    1  UNL1        0.1015
      2 C         140.7006  140.2225  160.3564 C.ar    1  UNL1        0.0240
      3 C         140.8146  138.7668  160.6996 C.ar    1  UNL1        0.0404
      4 C         140.9132  138.3399  162.1342 C.ar    1  UNL1        0.1639
      5 N         141.0348  136.9881  162.7730 N.ar    1  UNL1       -0.2234
      6 C         141.0944  137.1815  164.2593 C.ar    1  UNL1        0.1197
      7 C         141.0097  138.6528  164.5390 C.ar    1  UNL1        0.1035
      8 N         140.8977  139.3687  163.2256 N.ar    1  UNL1       -0.2107
      9 N         140.7837  140.8244  162.8824 N.ar    1  UNL1       -0.1638
     10 C         140.6513  144.6171  159.3453 C.ar    1  UNL1        0.1056
     11 C         140.3429  145.6187  160.4185 C.ar    1  UNL1        0.0183
     12 C         140.1486  145.1644  161.8348 C.ar    1  UNL1        0.0014
     13 C         140.2627  143.7087  162.1779 C.ar    1  UNL1        0.0016
     14 C         140.5711  142.7071  161.1047 C.ar    1  UNL1        0.0206
     15 C         140.7654  143.1613  159.6884 C.ar    1  UNL1        0.0199
     16 O         139.6444  144.2770  157.5095 O.2     1  UNL1       -0.1687
     17 S         140.8457  145.0713  157.9290 S.O2    1  UNL1        0.0070
     18 O         142.0469  145.8656  158.3485 O.2     1  UNL1       -0.1687
     19 C         141.0400  145.5255  156.5127 C.3     1  UNL1        0.1339
     20 C         140.6934  146.4547  155.3874 C.3     1  UNL1        0.0257
     21 C         141.7231  145.3830  155.1850 C.3     1  UNL1        0.0257
     22 C         141.0329  139.2954  165.8942 C.ar    1  UNL1        0.0193
     23 C         142.3420  139.5535  166.5796 C.ar    1  UNL1        0.0016
     24 C         142.3652  140.1961  167.9347 C.ar    1  UNL1        0.0031
     25 C         141.0794  140.5807  168.6046 C.ar    1  UNL1        0.0371
     26 C         139.7703  140.3227  167.9192 C.ar    1  UNL1        0.0031
     27 C         139.7471  139.6801  166.5640 C.ar    1  UNL1        0.0016
     28 C         141.1026  141.2233  169.9597 C.ar    1  UNL1        0.1806
     29 N         139.9028  141.6096  170.7730 N.ar    1  UNL1       -0.1084
     30 N         140.3884  142.2175  172.0555 N.ar    1  UNL1       -0.0229
     31 N         141.8882  142.2070  172.0348 N.ar    1  UNL1       -0.0464
     32 N         142.3296  141.5926  170.7395 N.ar    1  UNL1       -0.2388
     33 H         143.2611  141.4557  170.4517 H       1  UNL1        0.1923
@<TRIPOS>BOND
     1    16    17    2
     2    17    18    2
     3    17    10    1
     4    10    11   ar
     5    11    12   ar
     6    12    13   ar
     7    13    14   ar
     8    14     1    1
     9     1     2   ar
    10     2     3   ar
    11     3     4   ar
    12     4     5   ar
    13     5     6   ar
    14     6     7   ar
    15     7    22    1
    16    22    23   ar
    17    23    24   ar
    18    24    25   ar
    19    25    28    1
    20    28    29   ar
    21    29    30   ar
    22    30    31   ar
    23    31    32   ar
    24    25    26   ar
    25    26    27   ar
    26     7     8   ar
    27     8     9   ar
    28    14    15   ar
    29    17    19    1
    30    19    20    1
    31    20    21    1
    32    15    10   ar
    33    21    19    1
    34     9     1   ar
    35     8     4   ar
    36    27    22   ar
    37    32    28   ar
    38    32    33    1
@<TRIPOS>MOLECULE
*****
 33 38 0 0 0
SMALL
GASTEIGER

@<TRIPOS>ATOM
      1 C         139.3165  142.6128  163.8731 C.ar    1  UNL1        0.1015
      2 C         138.7549  143.9483  164.2613 C.ar    1  UNL1        0.0240
      3 C         138.8773  145.1141  163.3254 C.ar    1  UNL1        0.0404
      4 C         139.5613  144.9443  162.0013 C.ar    1  UNL1        0.1639
      5 N         139.8305  145.9040  160.8803 N.ar    1  UNL1       -0.2234
      6 C         140.5585  145.1615  159.7992 C.ar    1  UNL1        0.1197
      7 C         140.7392  143.7429  160.2521 C.ar    1  UNL1        0.1035
      8 N         140.1229  143.6087  161.6131 N.ar    1  UNL1       -0.2107
      9 N         140.0005  142.4429  162.5490 N.ar    1  UNL1       -0.1638
     10 C         139.8990  140.2329  166.9952 C.ar    1  UNL1        0.1056
     11 C         138.9494  139.1152  166.6808 C.ar    1  UNL1        0.0183
     12 C         138.1221  139.1634  165.4304 C.ar    1  UNL1        0.0014
     13 C         138.2445  140.3292  164.4945 C.ar    1  UNL1        0.0016
     14 C         139.1941  141.4469  164.8090 C.ar    1  UNL1        0.0206
     15 C         140.0214  141.3988  166.0593 C.ar    1  UNL1        0.0199
     16 O         141.9296  140.6262  167.4664 O.2     1  UNL1       -0.1687
     17 S         140.7262  140.1848  168.2455 S.O2    1  UNL1        0.0070
     18 O         139.5229  139.7435  169.0247 O.2     1  UNL1       -0.1687
     19 C         141.5535  140.1367  169.4958 C.3     1  UNL1        0.1339
     20 C         141.8537  140.6441  170.8751 C.3     1  UNL1        0.0257
     21 C         142.6861  139.5461  170.2822 C.3     1  UNL1        0.0257
     22 C         141.4172  142.6504  159.4797 C.ar    1  UNL1        0.0193
     23 C         142.8685  142.3539  159.7164 C.ar    1  UNL1        0.0016
     24 C         143.5464  141.2614  158.9440 C.ar    1  UNL1        0.0031
     25 C         142.7733  140.4652  157.9349 C.ar    1  UNL1        0.0371
     26 C         141.3220  140.7617  157.6982 C.ar    1  UNL1        0.0031
     27 C         140.6440  141.8542  158.4706 C.ar    1  UNL1        0.0016
     28 C         143.4513  139.3727  157.1625 C.ar    1  UNL1        0.1806
     29 N         143.0630  137.9238  157.1588 N.ar    1  UNL1       -0.1084
     30 N         144.0083  137.1928  156.2522 N.ar    1  UNL1       -0.0229
     31 N         144.9809  138.1899  155.6955 N.ar    1  UNL1       -0.0464
     32 N         144.6366  139.5372  156.2581 N.ar    1  UNL1       -0.2388
     33 H         145.1062  140.3812  156.0673 H       1  UNL1        0.1923
@<TRIPOS>BOND
     1    16    17    2
     2    17    18    2
     3    17    10    1
     4    10    11   ar
     5    11    12   ar
     6    12    13   ar
     7    13    14   ar
     8    14     1    1
     9     1     2   ar
    10     2     3   ar
    11     3     4   ar
    12     4     5   ar
    13     5     6   ar
    14     6     7   ar
    15     7    22    1
    16    22    23   ar
    17    23    24   ar
    18    24    25   ar
    19    25    28    1
    20    28    29   ar
    21    29    30   ar
    22    30    31   ar
    23    31    32   ar
    24    25    26   ar
    25    26    27   ar
    26     7     8   ar
    27     8     9   ar
    28    14    15   ar
    29    17    19    1
    30    19    20    1
    31    20    21    1
    32    15    10   ar
    33    21    19    1
    34     9     1   ar
    35     8     4   ar
    36    27    22   ar
    37    32    28   ar
    38    32    33    1
@<TRIPOS>MOLECULE
*****
 33 38 0 0 0
SMALL
GASTEIGER

@<TRIPOS>ATOM
      1 C         138.4835  139.8466  158.9563 C.ar    1  UNL1        0.1015
      2 C         137.6682  140.8748  158.2296 C.ar    1  UNL1        0.0240
      3 C         137.6940  140.9301  156.7309 C.ar    1  UNL1        0.0404
      4 C         138.5350  139.9571  155.9588 C.ar    1  UNL1        0.1639
      5 N         138.7589  139.7710  154.4873 N.ar    1  UNL1       -0.2234
      6 C         139.7126  138.6278  154.3046 C.ar    1  UNL1        0.1197
      7 C         140.0781  138.1073  155.6631 C.ar    1  UNL1        0.1035
      8 N         139.3503  138.9289  156.6855 N.ar    1  UNL1       -0.2107
      9 N         139.3245  138.8737  158.1842 N.ar    1  UNL1       -0.1638
     10 C         138.4163  141.0064  162.7511 C.ar    1  UNL1        0.1056
     11 C         138.4064  139.6806  163.4526 C.ar    1  UNL1        0.0183
     12 C         138.4223  138.4101  162.6553 C.ar    1  UNL1        0.0014
     13 C         138.4480  138.4654  161.1566 C.ar    1  UNL1        0.0016
     14 C         138.4578  139.7913  160.4551 C.ar    1  UNL1        0.0206
     15 C         138.4420  141.0617  161.2523 C.ar    1  UNL1        0.0199
     16 O         138.8884  141.5274  164.7525 O.2     1  UNL1       -0.1687
     17 S         138.4004  142.2769  163.5484 S.O2    1  UNL1        0.0070
     18 O         137.9124  143.0264  162.3442 O.2     1  UNL1       -0.1687
     19 C         138.3845  143.5473  164.3456 C.3     1  UNL1        0.1339
     20 C         139.0962  144.7553  164.8789 C.3     1  UNL1        0.0257
     21 C         137.6454  144.5399  165.1932 C.3     1  UNL1        0.0257
     22 C         141.0081  136.9657  155.9491 C.ar    1  UNL1        0.0193
     23 C         142.1179  137.1336  156.9442 C.ar    1  UNL1        0.0016
     24 C         143.0479  135.9920  157.2302 C.ar    1  UNL1        0.0031
     25 C         142.8682  134.6825  156.5211 C.ar    1  UNL1        0.0371
     26 C         141.7585  134.5146  155.5260 C.ar    1  UNL1        0.0031
     27 C         140.8285  135.6562  155.2400 C.ar    1  UNL1        0.0016
     28 C         143.7982  133.5409  156.8071 C.ar    1  UNL1        0.1806
     29 N         144.2659  132.5154  155.8173 N.ar    1  UNL1       -0.1084
     30 N         145.1805  131.5651  156.5316 N.ar    1  UNL1       -0.0229
     31 N         145.2783  132.0032  157.9628 N.ar    1  UNL1       -0.0464
     32 N         144.4239  133.2244  158.1331 N.ar    1  UNL1       -0.2388
     33 H         144.2963  133.7295  158.9685 H       1  UNL1        0.1923
@<TRIPOS>BOND
     1    16    17    2
     2    17    18    2
     3    17    10    1
     4    10    11   ar
     5    11    12   ar
     6    12    13   ar
     7    13    14   ar
     8    14     1    1
     9     1     2   ar
    10     2     3   ar
    11     3     4   ar
    12     4     5   ar
    13     5     6   ar
    14     6     7   ar
    15     7    22    1
    16    22    23   ar
    17    23    24   ar
    18    24    25   ar
    19    25    28    1
    20    28    29   ar
    21    29    30   ar
    22    30    31   ar
    23    31    32   ar
    24    25    26   ar
    25    26    27   ar
    26     7     8   ar
    27     8     9   ar
    28    14    15   ar
    29    17    19    1
    30    19    20    1
    31    20    21    1
    32    15    10   ar
    33    21    19    1
    34     9     1   ar
    35     8     4   ar
    36    27    22   ar
    37    32    28   ar
    38    32    33    1
@<TRIPOS>MOLECULE
*****
 33 38 0 0 0
SMALL
GASTEIGER

@<TRIPOS>ATOM
      1 C         142.5488  142.3368  161.5515 C.ar    1  UNL1        0.1015
      2 C         143.3626  141.5476  160.5693 C.ar    1  UNL1        0.0240
      3 C         144.1494  140.3574  161.0322 C.ar    1  UNL1        0.0404
      4 C         144.1223  139.9564  162.4774 C.ar    1  UNL1        0.1639
      5 N         144.7910  138.8386  163.2215 N.ar    1  UNL1       -0.2234
      6 C         144.3904  138.9371  164.6637 C.ar    1  UNL1        0.1197
      7 C         143.4742  140.1157  164.8108 C.ar    1  UNL1        0.1035
      8 N         143.3085  140.7456  163.4596 N.ar    1  UNL1       -0.2107
      9 N         142.5218  141.9358  162.9967 N.ar    1  UNL1       -0.1638
     10 C         140.9808  145.1025  159.1761 C.ar    1  UNL1        0.1056
     11 C         140.1885  145.9077  160.1629 C.ar    1  UNL1        0.0183
     12 C         140.1829  145.5226  161.6127 C.ar    1  UNL1        0.0014
     13 C         140.9697  144.3323  162.0755 C.ar    1  UNL1        0.0016
     14 C         141.7620  143.5271  161.0886 C.ar    1  UNL1        0.0206
     15 C         141.7676  143.9122  159.6390 C.ar    1  UNL1        0.0199
     16 O         139.6819  144.7733  157.5316 O.2     1  UNL1       -0.1687
     17 S         140.9864  145.4876  157.7264 S.O2    1  UNL1        0.0070
     18 O         142.2909  146.2019  157.9211 O.2     1  UNL1       -0.1687
     19 C         140.9919  145.8727  156.2767 C.3     1  UNL1        0.1339
     20 C         141.4353  145.6177  154.8666 C.3     1  UNL1        0.0257
     21 C         140.5582  146.7946  155.1758 C.3     1  UNL1        0.0257
     22 C         142.8357  140.5824  166.0854 C.ar    1  UNL1        0.0193
     23 C         142.2815  141.9729  166.1812 C.ar    1  UNL1        0.0016
     24 C         141.6431  142.4397  167.4558 C.ar    1  UNL1        0.0031
     25 C         141.5588  141.5159  168.6345 C.ar    1  UNL1        0.0371
     26 C         142.1130  140.1253  168.5387 C.ar    1  UNL1        0.0031
     27 C         142.7515  139.6586  167.2641 C.ar    1  UNL1        0.0016
     28 C         140.9203  141.9826  169.9091 C.ar    1  UNL1        0.1806
     29 N         141.3197  141.5745  171.2962 N.ar    1  UNL1       -0.1084
     30 N         140.4166  142.2791  172.2647 N.ar    1  UNL1       -0.0229
     31 N         139.4591  143.1226  171.4762 N.ar    1  UNL1       -0.0464
     32 N         139.7704  142.9393  170.0203 N.ar    1  UNL1       -0.2388
     33 H         139.3023  143.3712  169.2696 H       1  UNL1        0.1923
@<TRIPOS>BOND
     1    16    17    2
     2    17    18    2
     3    17    10    1
     4    10    11   ar
     5    11    12   ar
     6    12    13   ar
     7    13    14   ar
     8    14     1    1
     9     1     2   ar
    10     2     3   ar
    11     3     4   ar
    12     4     5   ar
    13     5     6   ar
    14     6     7   ar
    15     7    22    1
    16    22    23   ar
    17    23    24   ar
    18    24    25   ar
    19    25    28    1
    20    28    29   ar
    21    29    30   ar
    22    30    31   ar
    23    31    32   ar
    24    25    26   ar
    25    26    27   ar
    26     7     8   ar
    27     8     9   ar
    28    14    15   ar
    29    17    19    1
    30    19    20    1
    31    20    21    1
    32    15    10   ar
    33    21    19    1
    34     9     1   ar
    35     8     4   ar
    36    27    22   ar
    37    32    28   ar
    38    32    33    1
@<TRIPOS>MOLECULE
*****
 33 38 0 0 0
SMALL
GASTEIGER

@<TRIPOS>ATOM
      1 C         140.7490  140.4816  161.0537 C.ar    1  UNL1        0.1015
      2 C         139.9348  139.4364  160.3505 C.ar    1  UNL1        0.0240
      3 C         139.2056  138.3937  161.1448 C.ar    1  UNL1        0.0404
      4 C         139.2905  138.3962  162.6424 C.ar    1  UNL1        0.1639
      5 N         138.6851  137.5020  163.6836 N.ar    1  UNL1       -0.2234
      6 C         139.1252  137.9946  165.0303 C.ar    1  UNL1        0.1197
      7 C         140.0025  139.1932  164.8214 C.ar    1  UNL1        0.1035
      8 N         140.1047  139.4414  163.3456 N.ar    1  UNL1       -0.2107
      9 N         140.8339  140.4841  162.5513 N.ar    1  UNL1       -0.1638
     10 C         141.4428  143.5091  158.5833 C.ar    1  UNL1        0.1056
     11 C         142.9368  143.6098  158.6708 C.ar    1  UNL1        0.0183
     12 C         143.7016  142.6676  159.5526 C.ar    1  UNL1        0.0014
     13 C         142.9723  141.6249  160.3469 C.ar    1  UNL1        0.0016
     14 C         141.4783  141.5243  160.2594 C.ar    1  UNL1        0.0206
     15 C         140.7135  142.4664  159.3776 C.ar    1  UNL1        0.0199
     16 O         139.5186  144.3994  158.6518 O.2     1  UNL1       -0.1687
     17 S         140.6780  144.4512  157.7015 S.O2    1  UNL1        0.0070
     18 O         141.8374  144.5030  156.7512 O.2     1  UNL1       -0.1687
     19 C         139.9132  145.3933  156.8197 C.3     1  UNL1        0.1339
     20 C         138.9668  145.6261  155.6795 C.3     1  UNL1        0.0257
     21 C         139.5349  146.7922  156.4327 C.3     1  UNL1        0.0257
     22 C         140.6619  140.0017  165.8991 C.ar    1  UNL1        0.0193
     23 C         141.9689  139.5513  166.4813 C.ar    1  UNL1        0.0016
     24 C         142.6284  140.3598  167.5590 C.ar    1  UNL1        0.0031
     25 C         141.9808  141.6187  168.0546 C.ar    1  UNL1        0.0371
     26 C         140.6738  142.0692  167.4725 C.ar    1  UNL1        0.0031
     27 C         140.0144  141.2607  166.3948 C.ar    1  UNL1        0.0016
     28 C         142.6402  142.4272  169.1324 C.ar    1  UNL1        0.1806
     29 N         141.9383  143.2508  170.1711 N.ar    1  UNL1       -0.1084
     30 N         142.9816  143.8867  171.0413 N.ar    1  UNL1       -0.0229
     31 N         144.3283  143.4561  170.5403 N.ar    1  UNL1       -0.0464
     32 N         144.1173  142.5541  169.3605 N.ar    1  UNL1       -0.2388
     33 H         144.8242  142.1213  168.8292 H       1  UNL1        0.1923
@<TRIPOS>BOND
     1    16    17    2
     2    17    18    2
     3    17    10    1
     4    10    11   ar
     5    11    12   ar
     6    12    13   ar
     7    13    14   ar
     8    14     1    1
     9     1     2   ar
    10     2     3   ar
    11     3     4   ar
    12     4     5   ar
    13     5     6   ar
    14     6     7   ar
    15     7    22    1
    16    22    23   ar
    17    23    24   ar
    18    24    25   ar
    19    25    28    1
    20    28    29   ar
    21    29    30   ar
    22    30    31   ar
    23    31    32   ar
    24    25    26   ar
    25    26    27   ar
    26     7     8   ar
    27     8     9   ar
    28    14    15   ar
    29    17    19    1
    30    19    20    1
    31    20    21    1
    32    15    10   ar
    33    21    19    1
    34     9     1   ar
    35     8     4   ar
    36    27    22   ar
    37    32    28   ar
    38    32    33    1
@<TRIPOS>MOLECULE
*****
 33 38 0 0 0
SMALL
GASTEIGER

@<TRIPOS>ATOM
      1 C         141.9507  141.5034  160.7043 C.ar    1  UNL1        0.1015
      2 C         143.1574  141.8220  159.8723 C.ar    1  UNL1        0.0240
      3 C         144.5041  141.9461  160.5211 C.ar    1  UNL1        0.0404
      4 C         144.6441  141.7517  162.0018 C.ar    1  UNL1        0.1639
      5 N         145.8335  141.8115  162.9139 N.ar    1  UNL1       -0.2234
      6 C         145.3618  141.5299  164.3097 C.ar    1  UNL1        0.1197
      7 C         143.8809  141.2960  164.2602 C.ar    1  UNL1        0.1035
      8 N         143.4374  141.4330  162.8338 N.ar    1  UNL1       -0.2107
      9 N         142.0907  141.3089  162.1851 N.ar    1  UNL1       -0.1638
     10 C         138.9312  142.0730  158.1925 C.ar    1  UNL1        0.1056
     11 C         137.9103  141.1308  158.7583 C.ar    1  UNL1        0.0183
     12 C         138.2362  140.3129  159.9727 C.ar    1  UNL1        0.0014
     13 C         139.5829  140.4370  160.6214 C.ar    1  UNL1        0.0016
     14 C         140.6039  141.3792  160.0556 C.ar    1  UNL1        0.0206
     15 C         140.2781  142.1971  158.8413 C.ar    1  UNL1        0.0199
     16 O         140.0506  143.2702  156.8459 O.2     1  UNL1       -0.1687
     17 S         138.6054  142.8909  156.9782 S.O2    1  UNL1        0.0070
     18 O         137.1602  142.5117  157.1105 O.2     1  UNL1       -0.1687
     19 C         138.2796  143.7089  155.7638 C.3     1  UNL1        0.1339
     20 C         138.2604  143.8694  154.2725 C.3     1  UNL1        0.0257
     21 C         137.7345  144.9651  155.1516 C.3     1  UNL1        0.0257
     22 C         142.9985  140.9804  165.4314 C.ar    1  UNL1        0.0193
     23 C         143.0097  141.8690  166.6398 C.ar    1  UNL1        0.0016
     24 C         142.1272  141.5535  167.8110 C.ar    1  UNL1        0.0031
     25 C         141.2336  140.3493  167.7738 C.ar    1  UNL1        0.0371
     26 C         141.2224  139.4607  166.5654 C.ar    1  UNL1        0.0031
     27 C         142.1049  139.7763  165.3942 C.ar    1  UNL1        0.0016
     28 C         140.3512  140.0337  168.9450 C.ar    1  UNL1        0.1806
     29 N         138.8513  140.0530  168.9494 N.ar    1  UNL1       -0.1084
     30 N         138.3868  139.6747  170.3245 N.ar    1  UNL1       -0.0229
     31 N         139.5997  139.4216  171.1701 N.ar    1  UNL1       -0.0464
     32 N         140.8137  139.6435  170.3175 N.ar    1  UNL1       -0.2388
     33 H         141.7498  139.5495  170.6078 H       1  UNL1        0.1923
@<TRIPOS>BOND
     1    16    17    2
     2    17    18    2
     3    17    10    1
     4    10    11   ar
     5    11    12   ar
     6    12    13   ar
     7    13    14   ar
     8    14     1    1
     9     1     2   ar
    10     2     3   ar
    11     3     4   ar
    12     4     5   ar
    13     5     6   ar
    14     6     7   ar
    15     7    22    1
    16    22    23   ar
    17    23    24   ar
    18    24    25   ar
    19    25    28    1
    20    28    29   ar
    21    29    30   ar
    22    30    31   ar
    23    31    32   ar
    24    25    26   ar
    25    26    27   ar
    26     7     8   ar
    27     8     9   ar
    28    14    15   ar
    29    17    19    1
    30    19    20    1
    31    20    21    1
    32    15    10   ar
    33    21    19    1
    34     9     1   ar
    35     8     4   ar
    36    27    22   ar
    37    32    28   ar
    38    32    33    1
@<TRIPOS>MOLECULE
*****
 33 38 0 0 0
SMALL
GASTEIGER

@<TRIPOS>ATOM
      1 C         138.0569  140.8931  157.5509 C.ar    1  UNL1        0.1015
      2 C         138.9944  141.4067  156.4986 C.ar    1  UNL1        0.0240
      3 C         138.4929  141.6641  155.1086 C.ar    1  UNL1        0.0404
      4 C         137.0541  141.4080  154.7708 C.ar    1  UNL1        0.1639
      5 N         136.2784  141.5674  153.4968 N.ar    1  UNL1       -0.2234
      6 C         134.8615  141.1524  153.7619 C.ar    1  UNL1        0.1197
      7 C         134.7616  140.7365  155.1996 C.ar    1  UNL1        0.1035
      8 N         136.1166  140.8944  155.8232 N.ar    1  UNL1       -0.2107
      9 N         136.6180  140.6370  157.2132 N.ar    1  UNL1       -0.1638
     10 C         138.8766  141.4159  161.3987 C.ar    1  UNL1        0.1056
     11 C         139.5610  140.1207  161.7213 C.ar    1  UNL1        0.0183
     12 C         139.7441  139.0830  160.6537 C.ar    1  UNL1        0.0014
     13 C         139.2427  139.3405  159.2636 C.ar    1  UNL1        0.0016
     14 C         138.5583  140.6357  158.9411 C.ar    1  UNL1        0.0206
     15 C         138.3752  141.6734  160.0086 C.ar    1  UNL1        0.0199
     16 O         138.1121  143.3939  161.4525 O.2     1  UNL1       -0.1687
     17 S         138.6935  142.4536  162.4662 S.O2    1  UNL1        0.0070
     18 O         139.2749  141.5133  163.4800 O.2     1  UNL1       -0.1687
     19 C         138.5104  143.4913  163.5337 C.3     1  UNL1        0.1339
     20 C         137.7484  144.0233  164.7112 C.3     1  UNL1        0.0257
     21 C         138.9553  144.7566  164.2054 C.3     1  UNL1        0.0257
     22 C         133.5238  140.2483  155.8922 C.ar    1  UNL1        0.0193
     23 C         132.2392  141.0111  155.7583 C.ar    1  UNL1        0.0016
     24 C         131.0014  140.5229  156.4509 C.ar    1  UNL1        0.0031
     25 C         131.0483  139.2720  157.2773 C.ar    1  UNL1        0.0371
     26 C         132.3329  138.5092  157.4112 C.ar    1  UNL1        0.0031
     27 C         133.5707  138.9974  156.7186 C.ar    1  UNL1        0.0016
     28 C         129.8105  138.7838  157.9699 C.ar    1  UNL1        0.1806
     29 N         129.0671  137.5186  157.6591 N.ar    1  UNL1       -0.1084
     30 N         127.8960  137.4280  158.5920 N.ar    1  UNL1       -0.0229
     31 N         127.9157  138.6372  159.4794 N.ar    1  UNL1       -0.0464
     32 N         129.0989  139.4752  159.0949 N.ar    1  UNL1       -0.2388
     33 H         129.3622  140.3290  159.5083 H       1  UNL1        0.1923
@<TRIPOS>BOND
     1    16    17    2
     2    17    18    2
     3    17    10    1
     4    10    11   ar
     5    11    12   ar
     6    12    13   ar
     7    13    14   ar
     8    14     1    1
     9     1     2   ar
    10     2     3   ar
    11     3     4   ar
    12     4     5   ar
    13     5     6   ar
    14     6     7   ar
    15     7    22    1
    16    22    23   ar
    17    23    24   ar
    18    24    25   ar
    19    25    28    1
    20    28    29   ar
    21    29    30   ar
    22    30    31   ar
    23    31    32   ar
    24    25    26   ar
    25    26    27   ar
    26     7     8   ar
    27     8     9   ar
    28    14    15   ar
    29    17    19    1
    30    19    20    1
    31    20    21    1
    32    15    10   ar
    33    21    19    1
    34     9     1   ar
    35     8     4   ar
    36    27    22   ar
    37    32    28   ar
    38    32    33    1
@<TRIPOS>MOLECULE
*****
 33 38 0 0 0
SMALL
GASTEIGER

@<TRIPOS>ATOM
      1 C         141.7184  139.9513  160.8698 C.ar    1  UNL1        0.1015
      2 C         140.8619  138.9802  160.1126 C.ar    1  UNL1        0.0240
      3 C         139.8412  138.1556  160.8393 C.ar    1  UNL1        0.0404
      4 C         139.6769  138.3020  162.3230 C.ar    1  UNL1        0.1639
      5 N         138.7615  137.6295  163.3028 N.ar    1  UNL1       -0.2234
      6 C         139.0523  138.1850  164.6654 C.ar    1  UNL1        0.1197
      7 C         140.1474  139.2008  164.5278 C.ar    1  UNL1        0.1035
      8 N         140.5334  139.2731  163.0802 N.ar    1  UNL1       -0.2107
      9 N         141.5542  140.0978  162.3536 N.ar    1  UNL1       -0.1638
     10 C         144.2023  141.2040  158.0393 C.ar    1  UNL1        0.1056
     11 C         144.7807  142.4255  158.6900 C.ar    1  UNL1        0.0183
     12 C         144.3384  142.8222  160.0674 C.ar    1  UNL1        0.0014
     13 C         143.3177  141.9975  160.7939 C.ar    1  UNL1        0.0016
     14 C         142.7392  140.7760  160.1432 C.ar    1  UNL1        0.0206
     15 C         143.1815  140.3793  158.7659 C.ar    1  UNL1        0.0199
     16 O         144.1217  139.4206  156.8936 O.2     1  UNL1       -0.1687
     17 S         144.6446  140.8073  156.6620 S.O2    1  UNL1        0.0070
     18 O         145.1674  142.1940  156.4305 O.2     1  UNL1       -0.1687
     19 C         145.0868  140.4106  155.2847 C.3     1  UNL1        0.1339
     20 C         145.2196  139.3703  154.2123 C.3     1  UNL1        0.0257
     21 C         145.7201  140.7636  153.9716 C.3     1  UNL1        0.0257
     22 C         140.7506  140.0034  165.6423 C.ar    1  UNL1        0.0193
     23 C         140.0416  141.2200  166.1593 C.ar    1  UNL1        0.0016
     24 C         140.6448  142.0226  167.2738 C.ar    1  UNL1        0.0031
     25 C         141.9569  141.6087  167.8712 C.ar    1  UNL1        0.0371
     26 C         142.6659  140.3921  167.3542 C.ar    1  UNL1        0.0031
     27 C         142.0627  139.5895  166.2397 C.ar    1  UNL1        0.0016
     28 C         142.5601  142.4113  168.9857 C.ar    1  UNL1        0.1806
     29 N         144.0214  142.5114  169.3094 N.ar    1  UNL1       -0.1084
     30 N         144.1723  143.4167  170.4958 N.ar    1  UNL1       -0.0229
     31 N         142.8044  143.8760  170.9054 N.ar    1  UNL1       -0.0464
     32 N         141.8079  143.2546  169.9720 N.ar    1  UNL1       -0.2388
     33 H         140.8317  143.3786  170.0016 H       1  UNL1        0.1923
@<TRIPOS>BOND
     1    16    17    2
     2    17    18    2
     3    17    10    1
     4    10    11   ar
     5    11    12   ar
     6    12    13   ar
     7    13    14   ar
     8    14     1    1
     9     1     2   ar
    10     2     3   ar
    11     3     4   ar
    12     4     5   ar
    13     5     6   ar
    14     6     7   ar
    15     7    22    1
    16    22    23   ar
    17    23    24   ar
    18    24    25   ar
    19    25    28    1
    20    28    29   ar
    21    29    30   ar
    22    30    31   ar
    23    31    32   ar
    24    25    26   ar
    25    26    27   ar
    26     7     8   ar
    27     8     9   ar
    28    14    15   ar
    29    17    19    1
    30    19    20    1
    31    20    21    1
    32    15    10   ar
    33    21    19    1
    34     9     1   ar
    35     8     4   ar
    36    27    22   ar
    37    32    28   ar
    38    32    33    1
@<TRIPOS>MOLECULE
*****
 33 38 0 0 0
SMALL
GASTEIGER

@<TRIPOS>ATOM
      1 C         140.1023  139.5896  163.2567 C.ar    1  UNL1        0.1015
      2 C         138.6373  139.2899  163.3743 C.ar    1  UNL1        0.0240
      3 C         137.7628  139.3336  162.1564 C.ar    1  UNL1        0.0404
      4 C         138.3533  139.6770  160.8210 C.ar    1  UNL1        0.1639
      5 N         137.7445  139.7969  159.4552 N.ar    1  UNL1       -0.2234
      6 C         138.8334  140.1707  158.4937 C.ar    1  UNL1        0.1197
      7 C         140.1151  140.2818  159.2651 C.ar    1  UNL1        0.1035
      8 N         139.8183  139.9767  160.7034 N.ar    1  UNL1       -0.2107
      9 N         140.6928  139.9330  161.9213 N.ar    1  UNL1       -0.1638
     10 C         141.6753  140.5210  166.7793 C.ar    1  UNL1        0.1056
     11 C         142.7260  139.4585  166.9104 C.ar    1  UNL1        0.0183
     12 C         142.9021  138.4397  165.8236 C.ar    1  UNL1        0.0014
     13 C         142.0276  138.4834  164.6058 C.ar    1  UNL1        0.0016
     14 C         140.9769  139.5459  164.4747 C.ar    1  UNL1        0.0206
     15 C         140.8008  140.5647  165.5614 C.ar    1  UNL1        0.0199
     16 O         142.7580  142.2266  167.4262 O.2     1  UNL1       -0.1687
     17 S         141.4992  141.5397  167.8661 S.O2    1  UNL1        0.0070
     18 O         140.2404  140.8528  168.3060 O.2     1  UNL1       -0.1687
     19 C         141.3231  142.5585  168.9528 C.3     1  UNL1        0.1339
     20 C         141.8052  143.2057  170.2172 C.3     1  UNL1        0.0257
     21 C         140.5360  143.6758  169.5708 C.3     1  UNL1        0.0257
     22 C         141.4577  140.6359  158.6978 C.ar    1  UNL1        0.0193
     23 C         142.1251  139.7152  157.7195 C.ar    1  UNL1        0.0016
     24 C         143.4677  140.0693  157.1522 C.ar    1  UNL1        0.0031
     25 C         144.1431  141.3440  157.5631 C.ar    1  UNL1        0.0371
     26 C         143.4758  142.2647  158.5414 C.ar    1  UNL1        0.0031
     27 C         142.1331  141.9106  159.1087 C.ar    1  UNL1        0.0016
     28 C         145.4858  141.6981  156.9958 C.ar    1  UNL1        0.1806
     29 N         146.1673  141.0119  155.8491 N.ar    1  UNL1       -0.1084
     30 N         147.4854  141.6902  155.6202 N.ar    1  UNL1       -0.0229
     31 N         147.6186  142.7956  156.6254 N.ar    1  UNL1       -0.0464
     32 N         146.3828  142.8005  157.4756 N.ar    1  UNL1       -0.2388
     33 H         146.1936  143.4186  158.2181 H       1  UNL1        0.1923
@<TRIPOS>BOND
     1    16    17    2
     2    17    18    2
     3    17    10    1
     4    10    11   ar
     5    11    12   ar
     6    12    13   ar
     7    13    14   ar
     8    14     1    1
     9     1     2   ar
    10     2     3   ar
    11     3     4   ar
    12     4     5   ar
    13     5     6   ar
    14     6     7   ar
    15     7    22    1
    16    22    23   ar
    17    23    24   ar
    18    24    25   ar
    19    25    28    1
    20    28    29   ar
    21    29    30   ar
    22    30    31   ar
    23    31    32   ar
    24    25    26   ar
    25    26    27   ar
    26     7     8   ar
    27     8     9   ar
    28    14    15   ar
    29    17    19    1
    30    19    20    1
    31    20    21    1
    32    15    10   ar
    33    21    19    1
    34     9     1   ar
    35     8     4   ar
    36    27    22   ar
    37    32    28   ar
    38    32    33    1
