@<TRIPOS>MOLECULE
*****
 40 42 0 0 0
SMALL
GASTEIGER

@<TRIPOS>ATOM
      1 C         138.9518  142.5588  161.7459 C.2     1  UNL1        0.2485
      2 O         137.9993  143.7173  161.7633 O.2     1  UNL1       -0.2726
      3 N         139.9128  142.3950  160.6058 N.am    1  UNL1       -0.2823
      4 H         140.5381  141.6345  160.5944 H       1  UNL1        0.1549
      5 C         137.5833  138.0044  161.6041 C.3     1  UNL1        0.0949
      6 C         137.9904  139.4468  161.5442 C.2     1  UNL1        0.2269
      7 O         137.8862  140.2024  160.2527 O.2     1  UNL1       -0.2748
      8 N         138.5015  140.1336  162.7759 N.am    1  UNL1       -0.2655
      9 C         138.6605  139.5106  164.1311 C.3     1  UNL1        0.1206
     10 C         139.2007  140.5560  165.0614 C.ar    1  UNL1       -0.0030
     11 C         139.5559  140.5162  166.5181 C.ar    1  UNL1        0.0155
     12 C         140.0860  141.7456  167.1946 C.ar    1  UNL1        0.1055
     13 C         140.2609  143.0147  166.4144 C.ar    1  UNL1        0.0181
     14 C         139.9056  143.0544  164.9576 C.ar    1  UNL1       -0.0011
     15 C         139.3755  141.8251  164.2811 C.ar    1  UNL1        0.0022
     16 C         138.9434  141.5640  162.8686 C.3     1  UNL1        0.1750
     17 S         140.4412  141.7059  168.6515 S.O2    1  UNL1        0.0112
     18 O         140.4532  143.2053  168.6895 O.2     1  UNL1       -0.1685
     19 O         140.4293  140.2064  168.6135 O.2     1  UNL1       -0.1685
     20 C         140.7964  141.6661  170.1082 C.3     1  UNL1        0.1875
     21 C         141.0158  140.3486  170.7911 C.3     1  UNL1        0.1629
     22 O         139.8436  139.5639  171.3012 O.3     1  UNL1       -0.3801
     23 H         139.4173  140.0519  172.0230 H       1  UNL1        0.2105
     24 C         139.9212  143.3897  159.4832 C.ar    1  UNL1        0.0503
     25 C         139.2039  143.0813  158.2025 C.ar    1  UNL1        0.0144
     26 C         139.2122  144.0761  157.0798 C.ar    1  UNL1       -0.0002
     27 C         139.9380  145.3792  157.2379 C.ar    1  UNL1        0.0182
     28 C         140.6554  145.6876  158.5186 C.ar    1  UNL1       -0.0002
     29 C         140.6470  144.6928  159.6413 C.ar    1  UNL1        0.0144
     30 C         139.9465  146.3740  156.1153 C.3     1  UNL1        0.2827
     31 O         139.3503  147.4065  157.0256 O.3     1  UNL1       -0.3692
     32 H         139.2269  148.2355  156.5373 H       1  UNL1        0.2112
     33 C         139.9549  147.3688  154.9926 C.3     1  UNL1        0.4311
     34 F         139.9634  148.3636  153.8699 F       1  UNL1       -0.1669
     35 F         138.4554  147.4016  155.0103 F       1  UNL1       -0.1669
     36 F         140.8344  147.4213  154.9013 F       1  UNL1       -0.1669
     37 C         140.5426  145.3416  155.2050 C.3     1  UNL1        0.4311
     38 F         141.1388  144.3091  154.2946 F       1  UNL1       -0.1669
     39 F         139.8229  145.2092  154.7059 F       1  UNL1       -0.1669
     40 F         141.9494  145.1879  155.7024 F       1  UNL1       -0.1669
@<TRIPOS>BOND
     1     5     6    1
     2     6     7    2
     3     6     8   am
     4     8     9    1
     5     9    10    1
     6    10    11   ar
     7    11    12   ar
     8    12    17    1
     9    17    18    2
    10    17    19    2
    11    17    20    1
    12    20    21    1
    13    21    22    1
    14    12    13   ar
    15    13    14   ar
    16    14    15   ar
    17    15    16    1
    18    16     1    1
    19     1     2    2
    20     1     3   am
    21     3    24    1
    22    24    25   ar
    23    25    26   ar
    24    26    27   ar
    25    27    30    1
    26    30    31    1
    27    30    33    1
    28    33    34    1
    29    33    35    1
    30    33    36    1
    31    30    37    1
    32    37    38    1
    33    37    39    1
    34    37    40    1
    35    27    28   ar
    36    28    29   ar
    37    16     8    1
    38    29    24   ar
    39    15    10   ar
    40    22    23    1
    41     3     4    1
    42    31    32    1
@<TRIPOS>MOLECULE
*****
 40 42 0 0 0
SMALL
GASTEIGER

@<TRIPOS>ATOM
      1 C         140.5940  139.1243  161.7659 C.2     1  UNL1        0.2485
      2 O         140.1607  137.6888  161.7988 O.2     1  UNL1       -0.2726
      3 N         141.2548  139.6804  160.5393 N.am    1  UNL1       -0.2823
      4 H         141.5392  140.6226  160.5177 H       1  UNL1        0.1549
      5 C         137.8582  143.0060  162.0560 C.3     1  UNL1        0.0949
      6 C         138.6911  141.7737  161.8615 C.2     1  UNL1        0.2269
      7 O         138.7229  141.0934  160.5251 O.2     1  UNL1       -0.2748
      8 N         139.4920  141.2218  163.0034 N.am    1  UNL1       -0.2655
      9 C         139.5589  141.7907  164.3897 C.3     1  UNL1        0.1206
     10 C         140.4749  140.9246  165.2025 C.ar    1  UNL1       -0.0030
     11 C         140.9189  140.9988  166.6333 C.ar    1  UNL1        0.0155
     12 C         141.8622  139.9686  167.1802 C.ar    1  UNL1        0.1055
     13 C         142.3614  138.8644  166.2963 C.ar    1  UNL1        0.0181
     14 C         141.9174  138.7902  164.8655 C.ar    1  UNL1       -0.0011
     15 C         140.9742  139.8203  164.3186 C.ar    1  UNL1        0.0022
     16 C         140.3667  140.0040  162.9594 C.3     1  UNL1        0.1750
     17 S         142.3062  140.0428  168.6111 S.O2    1  UNL1        0.0112
     18 O         143.1755  138.8381  168.4038 O.2     1  UNL1       -0.1685
     19 O         141.4369  141.2474  168.8184 O.2     1  UNL1       -0.1685
     20 C         142.7502  140.1169  170.0420 C.3     1  UNL1        0.1875
     21 C         141.9216  140.8612  171.0468 C.3     1  UNL1        0.1629
     22 O         142.3053  142.2536  171.4515 O.3     1  UNL1       -0.3801
     23 H         143.1521  142.2312  171.9241 H       1  UNL1        0.2105
     24 C         141.4821  138.8007  159.3458 C.ar    1  UNL1        0.0503
     25 C         142.6816  137.9014  159.2944 C.ar    1  UNL1        0.0144
     26 C         142.9089  137.0218  158.1009 C.ar    1  UNL1       -0.0002
     27 C         141.9367  137.0414  156.9588 C.ar    1  UNL1        0.0182
     28 C         140.7373  137.9406  157.0102 C.ar    1  UNL1       -0.0002
     29 C         140.5099  138.8203  158.2037 C.ar    1  UNL1        0.0144
     30 C         142.1640  136.1617  155.7652 C.3     1  UNL1        0.2827
     31 O         140.7883  135.5862  155.9274 O.3     1  UNL1       -0.3692
     32 H         140.6304  134.9258  155.2346 H       1  UNL1        0.2112
     33 C         142.3913  135.2821  154.5717 C.3     1  UNL1        0.4311
     34 F         142.6186  134.4025  153.3781 F       1  UNL1       -0.1669
     35 F         142.3256  134.0698  155.4526 F       1  UNL1       -0.1669
     36 F         142.4462  135.9292  153.9694 F       1  UNL1       -0.1669
     37 C         143.5397  136.7372  155.6031 C.3     1  UNL1        0.4311
     38 F         144.9154  137.3127  155.4410 F       1  UNL1       -0.1669
     39 F         143.9887  136.0151  155.8510 F       1  UNL1       -0.1669
     40 F         143.2932  138.1406  155.1342 F       1  UNL1       -0.1669
@<TRIPOS>BOND
     1     5     6    1
     2     6     7    2
     3     6     8   am
     4     8     9    1
     5     9    10    1
     6    10    11   ar
     7    11    12   ar
     8    12    17    1
     9    17    18    2
    10    17    19    2
    11    17    20    1
    12    20    21    1
    13    21    22    1
    14    12    13   ar
    15    13    14   ar
    16    14    15   ar
    17    15    16    1
    18    16     1    1
    19     1     2    2
    20     1     3   am
    21     3    24    1
    22    24    25   ar
    23    25    26   ar
    24    26    27   ar
    25    27    30    1
    26    30    31    1
    27    30    33    1
    28    33    34    1
    29    33    35    1
    30    33    36    1
    31    30    37    1
    32    37    38    1
    33    37    39    1
    34    37    40    1
    35    27    28   ar
    36    28    29   ar
    37    16     8    1
    38    29    24   ar
    39    15    10   ar
    40    22    23    1
    41     3     4    1
    42    31    32    1
@<TRIPOS>MOLECULE
*****
 40 42 0 0 0
SMALL
GASTEIGER

@<TRIPOS>ATOM
      1 C         142.5276  140.2549  161.8779 C.2     1  UNL1        0.2485
      2 O         143.8289  139.5094  161.8491 O.2     1  UNL1       -0.2726
      3 N         142.0803  141.0296  160.6738 N.am    1  UNL1       -0.2823
      4 H         141.2263  141.5189  160.6926 H       1  UNL1        0.1549
      5 C         138.2543  138.2362  162.4251 C.3     1  UNL1        0.0949
      6 C         139.6005  138.8382  162.1506 C.2     1  UNL1        0.2269
      7 O         140.2190  138.7036  160.7908 O.2     1  UNL1       -0.2748
      8 N         140.3282  139.5746  163.2361 N.am    1  UNL1       -0.2655
      9 C         139.8382  139.7891  164.6374 C.3     1  UNL1        0.1206
     10 C         140.8808  140.5729  165.3782 C.ar    1  UNL1       -0.0030
     11 C         140.9438  141.0757  166.7900 C.ar    1  UNL1        0.0155
     12 C         142.1412  141.8484  167.2582 C.ar    1  UNL1        0.1055
     13 C         143.2755  142.1183  166.3146 C.ar    1  UNL1        0.0181
     14 C         143.2125  141.6155  164.9028 C.ar    1  UNL1       -0.0011
     15 C         142.0152  140.8428  164.4346 C.ar    1  UNL1        0.0022
     16 C         141.6736  140.2258  163.1107 C.3     1  UNL1        0.1750
     17 S         142.2042  142.3513  168.6700 S.O2    1  UNL1        0.0112
     18 O         143.6567  142.6786  168.4886 O.2     1  UNL1       -0.1685
     19 O         140.7517  142.0239  168.8514 O.2     1  UNL1       -0.1685
     20 C         142.2672  142.8541  170.0818 C.3     1  UNL1        0.1875
     21 C         141.8496  141.9636  171.2144 C.3     1  UNL1        0.1629
     22 O         140.5438  142.2013  171.9131 O.3     1  UNL1       -0.3801
     23 H         140.5762  143.0516  172.3787 H       1  UNL1        0.2105
     24 C         142.9344  141.0587  159.4409 C.ar    1  UNL1        0.0503
     25 C         143.9540  142.1439  159.2603 C.ar    1  UNL1        0.0144
     26 C         144.8080  142.1731  158.0275 C.ar    1  UNL1       -0.0002
     27 C         144.6423  141.1169  156.9754 C.ar    1  UNL1        0.0182
     28 C         143.6227  140.0317  157.1560 C.ar    1  UNL1       -0.0002
     29 C         142.7687  140.0026  158.3888 C.ar    1  UNL1        0.0144
     30 C         145.4963  141.1459  155.7425 C.3     1  UNL1        0.2827
     31 O         146.1268  139.8468  156.1485 O.3     1  UNL1       -0.3692
     32 H         146.7833  139.5845  155.4843 H       1  UNL1        0.2112
     33 C         146.3502  141.1751  154.5096 C.3     1  UNL1        0.4311
     34 F         147.2041  141.2042  153.2767 F       1  UNL1       -0.1669
     35 F         147.5621  141.4327  155.3551 F       1  UNL1       -0.1669
     36 F         145.7015  141.0261  153.9253 F       1  UNL1       -0.1669
     37 C         144.8658  142.4451  155.3365 C.3     1  UNL1        0.4311
     38 F         144.2354  143.7442  154.9305 F       1  UNL1       -0.1669
     39 F         145.5696  142.9599  155.4921 F       1  UNL1       -0.1669
     40 F         143.4731  142.0620  154.9322 F       1  UNL1       -0.1669
@<TRIPOS>BOND
     1     5     6    1
     2     6     7    2
     3     6     8   am
     4     8     9    1
     5     9    10    1
     6    10    11   ar
     7    11    12   ar
     8    12    17    1
     9    17    18    2
    10    17    19    2
    11    17    20    1
    12    20    21    1
    13    21    22    1
    14    12    13   ar
    15    13    14   ar
    16    14    15   ar
    17    15    16    1
    18    16     1    1
    19     1     2    2
    20     1     3   am
    21     3    24    1
    22    24    25   ar
    23    25    26   ar
    24    26    27   ar
    25    27    30    1
    26    30    31    1
    27    30    33    1
    28    33    34    1
    29    33    35    1
    30    33    36    1
    31    30    37    1
    32    37    38    1
    33    37    39    1
    34    37    40    1
    35    27    28   ar
    36    28    29   ar
    37    16     8    1
    38    29    24   ar
    39    15    10   ar
    40    22    23    1
    41     3     4    1
    42    31    32    1
@<TRIPOS>MOLECULE
*****
 40 42 0 0 0
SMALL
GASTEIGER

@<TRIPOS>ATOM
      1 C         142.9593  141.1715  159.0229 C.2     1  UNL1        0.2485
      2 O         143.6688  141.1162  160.3433 O.2     1  UNL1       -0.2726
      3 N         141.6119  141.8231  158.9222 N.am    1  UNL1       -0.2823
      4 H         141.1461  141.8594  158.0556 H       1  UNL1        0.1549
      5 C         141.5454  137.3578  156.5546 C.3     1  UNL1        0.0949
      6 C         141.9072  138.5441  157.3982 C.2     1  UNL1        0.2269
      7 O         141.0627  138.9070  158.5836 O.2     1  UNL1       -0.2748
      8 N         143.1134  139.3676  157.0564 N.am    1  UNL1       -0.2655
      9 C         144.0479  139.1280  155.9077 C.3     1  UNL1        0.1206
     10 C         145.1090  140.1876  155.9446 C.ar    1  UNL1       -0.0030
     11 C         146.2930  140.4535  155.0629 C.ar    1  UNL1        0.0155
     12 C         147.1983  141.6138  155.3526 C.ar    1  UNL1        0.1055
     13 C         146.9196  142.5083  156.5241 C.ar    1  UNL1        0.0181
     14 C         145.7357  142.2424  157.4058 C.ar    1  UNL1       -0.0011
     15 C         144.8304  141.0820  157.1161 C.ar    1  UNL1        0.0022
     16 C         143.5970  140.5752  157.8031 C.3     1  UNL1        0.1750
     17 S         148.3823  141.8798  154.4708 S.O2    1  UNL1        0.0112
     18 O         147.4801  141.9270  153.2735 O.2     1  UNL1       -0.1685
     19 O         149.2845  141.8325  155.6682 O.2     1  UNL1       -0.1685
     20 C         149.5663  142.1457  153.5892 C.3     1  UNL1        0.1875
     21 C         149.7927  143.5198  153.0316 C.3     1  UNL1        0.1629
     22 O         148.7007  144.5459  153.0992 O.3     1  UNL1       -0.3801
     23 H         147.9581  144.2649  152.5419 H       1  UNL1        0.2105
     24 C         140.9741  142.4193  160.1420 C.ar    1  UNL1        0.0503
     25 C         141.1122  143.8870  160.4191 C.ar    1  UNL1        0.0144
     26 C         140.4745  144.4832  161.6389 C.ar    1  UNL1       -0.0002
     27 C         139.6986  143.6117  162.5814 C.ar    1  UNL1        0.0182
     28 C         139.5605  142.1440  162.3043 C.ar    1  UNL1       -0.0002
     29 C         140.1983  141.5478  161.0846 C.ar    1  UNL1        0.0144
     30 C         139.0608  144.2079  163.8012 C.3     1  UNL1        0.2827
     31 O         137.9423  144.7411  162.9559 O.3     1  UNL1       -0.3692
     32 H         137.3124  145.2195  163.5174 H       1  UNL1        0.2112
     33 C         138.4231  144.8040  165.0211 C.3     1  UNL1        0.4311
     34 F         137.7854  145.4001  166.2409 F       1  UNL1       -0.1669
     35 F         137.2390  143.9004  164.8436 F       1  UNL1       -0.1669
     36 F         139.0711  145.3765  165.2129 F       1  UNL1       -0.1669
     37 C         140.1793  143.6746  164.6466 C.3     1  UNL1        0.4311
     38 F         141.2979  143.1413  165.4919 F       1  UNL1       -0.1669
     39 F         140.8066  144.2296  164.3583 F       1  UNL1       -0.1669
     40 F         139.5449  142.5632  165.4291 F       1  UNL1       -0.1669
@<TRIPOS>BOND
     1     5     6    1
     2     6     7    2
     3     6     8   am
     4     8     9    1
     5     9    10    1
     6    10    11   ar
     7    11    12   ar
     8    12    17    1
     9    17    18    2
    10    17    19    2
    11    17    20    1
    12    20    21    1
    13    21    22    1
    14    12    13   ar
    15    13    14   ar
    16    14    15   ar
    17    15    16    1
    18    16     1    1
    19     1     2    2
    20     1     3   am
    21     3    24    1
    22    24    25   ar
    23    25    26   ar
    24    26    27   ar
    25    27    30    1
    26    30    31    1
    27    30    33    1
    28    33    34    1
    29    33    35    1
    30    33    36    1
    31    30    37    1
    32    37    38    1
    33    37    39    1
    34    37    40    1
    35    27    28   ar
    36    28    29   ar
    37    16     8    1
    38    29    24   ar
    39    15    10   ar
    40    22    23    1
    41     3     4    1
    42    31    32    1
@<TRIPOS>MOLECULE
*****
 40 42 0 0 0
SMALL
GASTEIGER

@<TRIPOS>ATOM
      1 C         141.8057  138.9898  158.5970 C.2     1  UNL1        0.2485
      2 O         142.4992  138.0300  159.5177 O.2     1  UNL1       -0.2726
      3 N         140.6250  139.7763  159.0844 N.am    1  UNL1       -0.2823
      4 H         140.1698  140.4063  158.4802 H       1  UNL1        0.1549
      5 C         139.9027  137.2265  154.6089 C.3     1  UNL1        0.0949
      6 C         140.4234  137.7343  155.9207 C.2     1  UNL1        0.2269
      7 O         139.7101  137.3901  157.1946 O.2     1  UNL1       -0.2748
      8 N         141.6574  138.5862  155.9588 N.am    1  UNL1       -0.2655
      9 C         142.4728  139.0105  154.7734 C.3     1  UNL1        0.1206
     10 C         143.6121  139.8499  155.2709 C.ar    1  UNL1       -0.0030
     11 C         144.7363  140.5404  154.5575 C.ar    1  UNL1        0.0155
     12 C         145.7494  141.3254  155.3369 C.ar    1  UNL1        0.1055
     13 C         145.6382  141.4198  156.8298 C.ar    1  UNL1        0.0181
     14 C         144.5139  140.7293  157.5432 C.ar    1  UNL1       -0.0011
     15 C         143.5008  139.9443  156.7638 C.ar    1  UNL1        0.0022
     16 C         142.2928  139.1633  157.1889 C.3     1  UNL1        0.1750
     17 S         146.8738  142.0160  154.6234 S.O2    1  UNL1        0.0112
     18 O         146.4530  141.3712  153.3361 O.2     1  UNL1       -0.1685
     19 O         147.2945  142.6607  155.9107 O.2     1  UNL1       -0.1685
     20 C         147.9981  142.7066  153.9100 C.3     1  UNL1        0.1875
     21 C         147.8304  144.1203  153.4373 C.3     1  UNL1        0.1629
     22 O         146.9495  145.0661  154.1984 O.3     1  UNL1       -0.3801
     23 H         146.0287  144.7661  154.1427 H       1  UNL1        0.2105
     24 C         140.1379  139.6029  160.4925 C.ar    1  UNL1        0.0503
     25 C         140.8703  140.2584  161.6256 C.ar    1  UNL1        0.0144
     26 C         140.3832  140.0850  163.0337 C.ar    1  UNL1       -0.0002
     27 C         139.1637  139.2560  163.3086 C.ar    1  UNL1        0.0182
     28 C         138.4313  138.6005  162.1755 C.ar    1  UNL1       -0.0002
     29 C         138.9184  138.7739  160.7674 C.ar    1  UNL1        0.0144
     30 C         138.6765  139.0825  164.7166 C.3     1  UNL1        0.2827
     31 O         137.7085  140.2115  164.5209 O.3     1  UNL1       -0.3692
     32 H         137.2028  140.3490  165.3372 H       1  UNL1        0.2112
     33 C         138.1894  138.9089  166.1247 C.3     1  UNL1        0.4311
     34 F         137.7023  138.7354  167.5327 F       1  UNL1       -0.1669
     35 F         138.7274  140.2639  166.4778 F       1  UNL1       -0.1669
     36 F         137.8391  138.1023  166.0191 F       1  UNL1       -0.1669
     37 C         139.6446  137.9536  164.9124 C.3     1  UNL1        0.4311
     38 F         140.6127  136.8245  165.1081 F       1  UNL1       -0.1669
     39 F         139.2013  137.3483  164.4414 F       1  UNL1       -0.1669
     40 F         140.7281  138.5477  165.7626 F       1  UNL1       -0.1669
@<TRIPOS>BOND
     1     5     6    1
     2     6     7    2
     3     6     8   am
     4     8     9    1
     5     9    10    1
     6    10    11   ar
     7    11    12   ar
     8    12    17    1
     9    17    18    2
    10    17    19    2
    11    17    20    1
    12    20    21    1
    13    21    22    1
    14    12    13   ar
    15    13    14   ar
    16    14    15   ar
    17    15    16    1
    18    16     1    1
    19     1     2    2
    20     1     3   am
    21     3    24    1
    22    24    25   ar
    23    25    26   ar
    24    26    27   ar
    25    27    30    1
    26    30    31    1
    27    30    33    1
    28    33    34    1
    29    33    35    1
    30    33    36    1
    31    30    37    1
    32    37    38    1
    33    37    39    1
    34    37    40    1
    35    27    28   ar
    36    28    29   ar
    37    16     8    1
    38    29    24   ar
    39    15    10   ar
    40    22    23    1
    41     3     4    1
    42    31    32    1
@<TRIPOS>MOLECULE
*****
 40 42 0 0 0
SMALL
GASTEIGER

@<TRIPOS>ATOM
      1 C         142.5755  137.5765  157.7689 C.2     1  UNL1        0.2485
      2 O         143.7029  138.5034  157.4228 O.2     1  UNL1       -0.2726
      3 N         141.9729  137.6086  159.1423 N.am    1  UNL1       -0.2823
      4 H         141.2330  137.0003  159.3695 H       1  UNL1        0.1549
      5 C         138.7969  138.1165  154.9287 C.3     1  UNL1        0.0949
      6 C         139.9663  138.0433  155.8652 C.2     1  UNL1        0.2269
      7 O         140.2508  139.1813  156.8001 O.2     1  UNL1       -0.2748
      8 N         140.8513  136.8322  155.8668 N.am    1  UNL1       -0.2655
      9 C         140.6923  135.6229  154.9936 C.3     1  UNL1        0.1206
     10 C         141.7933  134.6610  155.3289 C.ar    1  UNL1       -0.0030
     11 C         142.1400  133.3048  154.7901 C.ar    1  UNL1        0.0155
     12 C         143.3260  132.5633  155.3317 C.ar    1  UNL1        0.1055
     13 C         144.1655  133.1781  156.4121 C.ar    1  UNL1        0.0181
     14 C         143.8189  134.5343  156.9510 C.ar    1  UNL1       -0.0011
     15 C         142.6328  135.2758  156.4094 C.ar    1  UNL1        0.0022
     16 C         142.0505  136.6176  156.7418 C.3     1  UNL1        0.1750
     17 S         143.6727  131.2070  154.7928 S.O2    1  UNL1        0.0112
     18 O         144.9813  131.2506  155.5247 O.2     1  UNL1       -0.1685
     19 O         142.3642  131.1634  154.0609 O.2     1  UNL1       -0.1685
     20 C         144.0194  129.8508  154.2539 C.3     1  UNL1        0.1875
     21 C         144.5093  129.7069  152.8435 C.3     1  UNL1        0.1629
     22 O         145.8530  129.0968  152.5748 O.3     1  UNL1       -0.3801
     23 H         146.5470  129.6742  152.9296 H       1  UNL1        0.2105
     24 C         142.4979  138.5675  160.1694 C.ar    1  UNL1        0.0503
     25 C         141.7944  139.8707  160.4076 C.ar    1  UNL1        0.0144
     26 C         142.3193  140.8296  161.4347 C.ar    1  UNL1       -0.0002
     27 C         143.5477  140.4852  162.2235 C.ar    1  UNL1        0.0182
     28 C         144.2512  139.1821  161.9853 C.ar    1  UNL1       -0.0002
     29 C         143.7263  138.2231  160.9582 C.ar    1  UNL1        0.0144
     30 C         144.0727  141.4441  163.2507 C.3     1  UNL1        0.2827
     31 O         144.2834  142.4746  162.1812 O.3     1  UNL1       -0.3692
     32 H         144.6489  143.2812  162.5769 H       1  UNL1        0.2112
     33 C         144.5977  142.4029  164.2779 C.3     1  UNL1        0.4311
     34 F         145.1227  143.3617  165.3051 F       1  UNL1       -0.1669
     35 F         145.9880  142.2078  163.7494 F       1  UNL1       -0.1669
     36 F         143.8208  142.5863  164.6615 F       1  UNL1       -0.1669
     37 C         143.8621  140.4137  164.3202 C.3     1  UNL1        0.4311
     38 F         143.6513  139.3832  165.3897 F       1  UNL1       -0.1669
     39 F         142.9780  140.4632  164.3452 F       1  UNL1       -0.1669
     40 F         145.2494  139.9595  164.6651 F       1  UNL1       -0.1669
@<TRIPOS>BOND
     1     5     6    1
     2     6     7    2
     3     6     8   am
     4     8     9    1
     5     9    10    1
     6    10    11   ar
     7    11    12   ar
     8    12    17    1
     9    17    18    2
    10    17    19    2
    11    17    20    1
    12    20    21    1
    13    21    22    1
    14    12    13   ar
    15    13    14   ar
    16    14    15   ar
    17    15    16    1
    18    16     1    1
    19     1     2    2
    20     1     3   am
    21     3    24    1
    22    24    25   ar
    23    25    26   ar
    24    26    27   ar
    25    27    30    1
    26    30    31    1
    27    30    33    1
    28    33    34    1
    29    33    35    1
    30    33    36    1
    31    30    37    1
    32    37    38    1
    33    37    39    1
    34    37    40    1
    35    27    28   ar
    36    28    29   ar
    37    16     8    1
    38    29    24   ar
    39    15    10   ar
    40    22    23    1
    41     3     4    1
    42    31    32    1
@<TRIPOS>MOLECULE
*****
 40 42 0 0 0
SMALL
GASTEIGER

@<TRIPOS>ATOM
      1 C         141.3209  140.1612  161.7047 C.2     1  UNL1        0.2485
      2 O         140.0774  139.3480  161.4990 O.2     1  UNL1       -0.2726
      3 N         142.4393  140.0865  160.7077 N.am    1  UNL1       -0.2823
      4 H         143.2555  140.6202  160.8427 H       1  UNL1        0.1549
      5 C         141.1281  144.9124  161.8618 C.3     1  UNL1        0.0949
      6 C         141.1739  143.4212  161.7059 C.2     1  UNL1        0.2269
      7 O         141.0151  142.8039  160.3482 O.2     1  UNL1       -0.2748
      8 N         141.3787  142.5474  162.9078 N.am    1  UNL1       -0.2655
      9 C         141.5518  143.0186  164.3213 C.3     1  UNL1        0.1206
     10 C         141.7263  141.8114  165.1943 C.ar    1  UNL1       -0.0030
     11 C         141.9362  141.6634  166.6722 C.ar    1  UNL1        0.0155
     12 C         142.0809  140.2980  167.2760 C.ar    1  UNL1        0.1055
     13 C         142.0157  139.0806  166.4021 C.ar    1  UNL1        0.0181
     14 C         141.8057  139.2286  164.9243 C.ar    1  UNL1       -0.0011
     15 C         141.6611  140.5940  164.3204 C.ar    1  UNL1        0.0022
     16 C         141.4462  141.0489  162.9073 C.3     1  UNL1        0.1750
     17 S         142.2908  140.1499  168.7539 S.O2    1  UNL1        0.0112
     18 O         143.1581  138.9505  168.5106 O.2     1  UNL1       -0.1685
     19 O         141.4235  141.3492  168.9972 O.2     1  UNL1       -0.1685
     20 C         142.5007  140.0018  170.2317 C.3     1  UNL1        0.1875
     21 C         141.8914  140.9927  171.1788 C.3     1  UNL1        0.1629
     22 O         140.6498  140.6361  171.9411 O.3     1  UNL1       -0.3801
     23 H         139.9106  140.5272  171.3224 H       1  UNL1        0.2105
     24 C         142.3140  139.1987  159.5052 C.ar    1  UNL1        0.0503
     25 C         141.6017  139.6911  158.2804 C.ar    1  UNL1        0.0144
     26 C         141.4764  138.8034  157.0778 C.ar    1  UNL1       -0.0002
     27 C         142.0634  137.4232  157.1001 C.ar    1  UNL1        0.0182
     28 C         142.7757  136.9308  158.3249 C.ar    1  UNL1       -0.0002
     29 C         142.9010  137.8186  159.5275 C.ar    1  UNL1        0.0144
     30 C         141.9381  136.5353  155.8976 C.3     1  UNL1        0.2827
     31 O         140.4706  136.3788  156.1659 O.3     1  UNL1       -0.3692
     32 H         140.0780  135.8038  155.4905 H       1  UNL1        0.2112
     33 C         141.8130  135.6475  154.6950 C.3     1  UNL1        0.4311
     34 F         141.6878  134.7597  153.4925 F       1  UNL1       -0.1669
     35 F         141.3587  134.5204  155.5745 F       1  UNL1       -0.1669
     36 F         142.0702  136.2441  154.0930 F       1  UNL1       -0.1669
     37 C         143.4056  136.6918  155.6293 C.3     1  UNL1        0.4311
     38 F         144.8731  136.8484  155.3610 F       1  UNL1       -0.1669
     39 F         143.3805  137.5429  155.3849 F       1  UNL1       -0.1669
     40 F         143.9772  135.3396  155.9370 F       1  UNL1       -0.1669
@<TRIPOS>BOND
     1     5     6    1
     2     6     7    2
     3     6     8   am
     4     8     9    1
     5     9    10    1
     6    10    11   ar
     7    11    12   ar
     8    12    17    1
     9    17    18    2
    10    17    19    2
    11    17    20    1
    12    20    21    1
    13    21    22    1
    14    12    13   ar
    15    13    14   ar
    16    14    15   ar
    17    15    16    1
    18    16     1    1
    19     1     2    2
    20     1     3   am
    21     3    24    1
    22    24    25   ar
    23    25    26   ar
    24    26    27   ar
    25    27    30    1
    26    30    31    1
    27    30    33    1
    28    33    34    1
    29    33    35    1
    30    33    36    1
    31    30    37    1
    32    37    38    1
    33    37    39    1
    34    37    40    1
    35    27    28   ar
    36    28    29   ar
    37    16     8    1
    38    29    24   ar
    39    15    10   ar
    40    22    23    1
    41     3     4    1
    42    31    32    1
@<TRIPOS>MOLECULE
*****
 40 42 0 0 0
SMALL
GASTEIGER

@<TRIPOS>ATOM
      1 C         140.6264  140.6855  161.6972 C.2     1  UNL1        0.2485
      2 O         139.4744  139.8370  161.2469 O.2     1  UNL1       -0.2726
      3 N         141.9161  140.6665  160.9313 N.am    1  UNL1       -0.2823
      4 H         142.6723  141.2234  161.2268 H       1  UNL1        0.1549
      5 C         140.4942  145.4371  161.8970 C.3     1  UNL1        0.0949
      6 C         140.5459  143.9477  161.7272 C.2     1  UNL1        0.2269
      7 O         140.6916  143.3536  160.3576 O.2     1  UNL1       -0.2748
      8 N         140.4520  143.0524  162.9270 N.am    1  UNL1       -0.2655
      9 C         140.3045  143.4992  164.3512 C.3     1  UNL1        0.1206
     10 C         140.2504  142.2760  165.2177 C.ar    1  UNL1       -0.0030
     11 C         140.1120  142.1021  166.7011 C.ar    1  UNL1        0.0155
     12 C         140.0877  140.7252  167.2957 C.ar    1  UNL1        0.1055
     13 C         140.2017  139.5223  166.4070 C.ar    1  UNL1        0.0181
     14 C         140.3400  139.6962  164.9235 C.ar    1  UNL1       -0.0011
     15 C         140.3644  141.0731  164.3289 C.ar    1  UNL1        0.0022
     16 C         140.4890  141.5529  162.9132 C.3     1  UNL1        0.1750
     17 S         139.9493  140.5513  168.7792 S.O2    1  UNL1        0.0112
     18 O         141.0440  141.5529  168.9988 O.2     1  UNL1       -0.1685
     19 O         138.8545  139.5497  168.5596 O.2     1  UNL1       -0.1685
     20 C         139.8109  140.3773  170.2626 C.3     1  UNL1        0.1875
     21 C         140.8602  140.9263  171.1833 C.3     1  UNL1        0.1629
     22 O         140.5827  142.1647  171.9830 O.3     1  UNL1       -0.3801
     23 H         140.4811  142.9206  171.3836 H       1  UNL1        0.2105
     24 C         142.0536  139.7991  159.7153 C.ar    1  UNL1        0.0503
     25 C         142.5884  138.4038  159.8459 C.ar    1  UNL1        0.0144
     26 C         142.7259  137.5364  158.6299 C.ar    1  UNL1       -0.0002
     27 C         142.3285  138.0643  157.2833 C.ar    1  UNL1        0.0182
     28 C         141.7937  139.4596  157.1527 C.ar    1  UNL1       -0.0002
     29 C         141.6562  140.3271  158.3687 C.ar    1  UNL1        0.0144
     30 C         142.4659  137.1970  156.0672 C.3     1  UNL1        0.2827
     31 O         143.9548  137.3748  156.1085 O.3     1  UNL1       -0.3692
     32 H         144.3594  136.8843  155.3760 H       1  UNL1        0.2112
     33 C         142.6032  136.3296  154.8511 C.3     1  UNL1        0.4311
     34 F         142.7406  135.4622  153.6350 F       1  UNL1       -0.1669
     35 F         143.0252  137.5236  154.0472 F       1  UNL1       -0.1669
     36 F         142.3658  135.5674  155.2347 F       1  UNL1       -0.1669
     37 C         140.9771  137.0191  156.0259 C.3     1  UNL1        0.4311
     38 F         139.4882  136.8412  155.9847 F       1  UNL1       -0.1669
     39 F         140.9103  136.5014  156.7415 F       1  UNL1       -0.1669
     40 F         140.5499  137.8119  154.8263 F       1  UNL1       -0.1669
@<TRIPOS>BOND
     1     5     6    1
     2     6     7    2
     3     6     8   am
     4     8     9    1
     5     9    10    1
     6    10    11   ar
     7    11    12   ar
     8    12    17    1
     9    17    18    2
    10    17    19    2
    11    17    20    1
    12    20    21    1
    13    21    22    1
    14    12    13   ar
    15    13    14   ar
    16    14    15   ar
    17    15    16    1
    18    16     1    1
    19     1     2    2
    20     1     3   am
    21     3    24    1
    22    24    25   ar
    23    25    26   ar
    24    26    27   ar
    25    27    30    1
    26    30    31    1
    27    30    33    1
    28    33    34    1
    29    33    35    1
    30    33    36    1
    31    30    37    1
    32    37    38    1
    33    37    39    1
    34    37    40    1
    35    27    28   ar
    36    28    29   ar
    37    16     8    1
    38    29    24   ar
    39    15    10   ar
    40    22    23    1
    41     3     4    1
    42    31    32    1
@<TRIPOS>MOLECULE
*****
 40 42 0 0 0
SMALL
GASTEIGER

@<TRIPOS>ATOM
      1 C         139.5737  142.4686  163.0443 C.2     1  UNL1        0.2485
      2 O         139.0368  143.6226  163.8379 O.2     1  UNL1       -0.2726
      3 N         140.4182  141.4257  163.7148 N.am    1  UNL1       -0.2823
      4 H         140.7706  140.6682  163.1939 H       1  UNL1        0.1549
      5 C         137.1549  139.0281  160.8199 C.3     1  UNL1        0.0949
      6 C         137.9009  140.0596  161.6133 C.2     1  UNL1        0.2269
      7 O         138.0504  139.9006  163.0973 O.2     1  UNL1       -0.2748
      8 N         138.4974  141.2500  160.9226 N.am    1  UNL1       -0.2655
      9 C         138.4297  141.5422  159.4529 C.3     1  UNL1        0.1206
     10 C         139.1568  142.8301  159.2023 C.ar    1  UNL1       -0.0030
     11 C         139.4148  143.6091  157.9468 C.ar    1  UNL1        0.0155
     12 C         140.1899  144.8920  158.0061 C.ar    1  UNL1        0.1055
     13 C         140.7070  145.3957  159.3210 C.ar    1  UNL1        0.0181
     14 C         140.4489  144.6167  160.5765 C.ar    1  UNL1       -0.0011
     15 C         139.6738  143.3339  160.5172 C.ar    1  UNL1        0.0022
     16 C         139.2663  142.3573  161.5804 C.3     1  UNL1        0.1750
     17 S         140.4480  145.6711  156.7505 S.O2    1  UNL1        0.0112
     18 O         139.1634  145.1597  156.1691 O.2     1  UNL1       -0.1685
     19 O         141.7326  146.1825  157.3320 O.2     1  UNL1       -0.1685
     20 C         140.7061  146.4502  155.4950 C.3     1  UNL1        0.1875
     21 C         139.7016  147.4564  155.0169 C.3     1  UNL1        0.1629
     22 O         138.5977  147.9054  155.9278 O.3     1  UNL1       -0.3801
     23 H         138.0056  147.1591  156.1104 H       1  UNL1        0.2105
     24 C         140.7256  141.5370  165.1787 C.ar    1  UNL1        0.0503
     25 C         142.0405  142.1018  165.6281 C.ar    1  UNL1        0.0144
     26 C         142.3479  142.2131  167.0921 C.ar    1  UNL1       -0.0002
     27 C         141.3404  141.7595  168.1065 C.ar    1  UNL1        0.0182
     28 C         140.0255  141.1946  167.6571 C.ar    1  UNL1       -0.0002
     29 C         139.7181  141.0834  166.1931 C.ar    1  UNL1        0.0144
     30 C         141.6478  141.8707  169.5705 C.3     1  UNL1        0.2827
     31 O         142.4443  140.6016  169.4998 O.3     1  UNL1       -0.3692
     32 H         142.8033  140.3959  170.3771 H       1  UNL1        0.2112
     33 C         141.9551  141.9820  171.0345 C.3     1  UNL1        0.4311
     34 F         142.2624  142.0933  172.4984 F       1  UNL1       -0.1669
     35 F         141.1218  140.7638  171.3020 F       1  UNL1       -0.1669
     36 F         142.4656  142.7040  170.9831 F       1  UNL1       -0.1669
     37 C         140.8513  143.1398  169.6412 C.3     1  UNL1        0.4311
     38 F         140.0548  144.4090  169.7118 F       1  UNL1       -0.1669
     39 F         141.4443  143.6619  169.2407 F       1  UNL1       -0.1669
     40 F         139.5819  142.7339  170.3296 F       1  UNL1       -0.1669
@<TRIPOS>BOND
     1     5     6    1
     2     6     7    2
     3     6     8   am
     4     8     9    1
     5     9    10    1
     6    10    11   ar
     7    11    12   ar
     8    12    17    1
     9    17    18    2
    10    17    19    2
    11    17    20    1
    12    20    21    1
    13    21    22    1
    14    12    13   ar
    15    13    14   ar
    16    14    15   ar
    17    15    16    1
    18    16     1    1
    19     1     2    2
    20     1     3   am
    21     3    24    1
    22    24    25   ar
    23    25    26   ar
    24    26    27   ar
    25    27    30    1
    26    30    31    1
    27    30    33    1
    28    33    34    1
    29    33    35    1
    30    33    36    1
    31    30    37    1
    32    37    38    1
    33    37    39    1
    34    37    40    1
    35    27    28   ar
    36    28    29   ar
    37    16     8    1
    38    29    24   ar
    39    15    10   ar
    40    22    23    1
    41     3     4    1
    42    31    32    1
