@<TRIPOS>MOLECULE
*****
 45 50 0 0 0
SMALL
GASTEIGER

@<TRIPOS>ATOM
      1 C         144.9761  143.0002  162.2112 C.ar    1  UNL1        0.0507
      2 C         144.2598  144.1877  162.7828 C.ar    1  UNL1        0.0178
      3 C         143.9279  144.2310  164.2449 C.ar    1  UNL1        0.0388
      4 C         144.3123  143.0868  165.1355 C.ar    1  UNL1        0.1473
      5 C         145.0286  141.8993  164.5639 C.ar    1  UNL1        0.0388
      6 C         145.3605  141.8560  163.1017 C.ar    1  UNL1        0.0178
      7 C         144.2830  142.4851  159.7608 C.2     1  UNL1        0.2553
      8 O         142.9259  142.0566  160.2348 O.2     1  UNL1       -0.2696
      9 N         145.3081  142.9569  160.7490 N.am    1  UNL1       -0.2802
     10 H         146.1988  143.2382  160.4379 H       1  UNL1        0.1552
     11 C         142.2036  141.7985  157.3413 C.3     1  UNL1        0.0520
     12 C         143.6591  142.1262  157.1865 C.ar    1  UNL1        0.0636
     13 C         144.6150  142.4418  158.2986 C.ar    1  UNL1        0.1244
     14 C         145.9610  142.7064  157.6918 C.ar    1  UNL1        0.2844
     15 O         147.2114  143.0609  158.4408 O.2     1  UNL1       -0.2650
     16 N         145.8371  142.5544  156.2047 N.ar    1  UNL1       -0.2144
     17 N         144.4144  142.1958  155.8924 N.ar    1  UNL1       -0.2657
     18 C         143.8468  141.9499  154.5259 C.3     1  UNL1        0.1518
     19 C         146.9418  142.7302  155.2055 C.ar    1  UNL1        0.0841
     20 C         148.1083  141.7871  155.2032 C.ar    1  UNL1        0.0192
     21 C         149.2129  141.9628  154.2039 C.ar    1  UNL1        0.0015
     22 C         149.1513  143.0817  153.2068 C.ar    1  UNL1        0.0001
     23 C         147.9848  144.0249  153.2089 C.ar    1  UNL1        0.0015
     24 C         146.8801  143.8490  154.2083 C.ar    1  UNL1        0.0192
     25 O         143.9803  143.1301  166.5977 O.3     1  UNL1       -0.4360
     26 C         142.7191  142.4919  167.0997 C.ar    1  UNL1        0.2336
     27 C         142.5372  142.2433  168.5677 C.ar    1  UNL1        0.0788
     28 C         141.2759  141.6050  169.0696 C.ar    1  UNL1        0.1067
     29 N         140.1966  141.2154  168.1036 N.ar    1  UNL1       -0.2118
     30 C         140.3786  141.4640  166.6356 C.ar    1  UNL1        0.2232
     31 N         141.6397  142.1022  166.1336 N.ar    1  UNL1       -0.1783
     32 N         139.2993  141.0744  165.6695 N.pl3   1  UNL1       -0.2824
     33 H         138.4674  141.5988  165.6231 H       1  UNL1        0.1551
     34 C         139.4875  139.8856  164.7741 C.ar    1  UNL1        0.0517
     35 C         138.6421  138.6614  164.9654 C.ar    1  UNL1        0.0148
     36 C         138.8302  137.4727  164.0701 C.ar    1  UNL1        0.0025
     37 C         139.8637  137.5082  162.9836 C.ar    1  UNL1        0.0146
     38 C         140.7091  138.7325  162.7924 C.ar    1  UNL1        0.0492
     39 C         140.5210  139.9212  163.6876 C.ar    1  UNL1        0.0292
     40 N         141.7427  138.7680  161.7058 N.pl3   1  UNL1       -0.3027
     41 C         141.3224  138.6888  160.2681 C.3     1  UNL1        0.1231
     42 C         142.3560  138.7243  159.1815 C.3     1  UNL1        0.1636
     43 O         143.8098  138.8390  159.5327 O.3     1  UNL1       -0.3501
     44 C         144.2300  138.9181  160.9706 C.3     1  UNL1        0.1636
     45 C         143.1964  138.8827  162.0570 C.3     1  UNL1        0.1231
@<TRIPOS>BOND
     1    11    12    1
     2    12    13   ar
     3    13     7    1
     4     7     8    2
     5     7     9   am
     6     9     1    1
     7     1     2   ar
     8     2     3   ar
     9     3     4   ar
    10     4    25    1
    11    25    26    1
    12    26    27   ar
    13    27    28   ar
    14    28    29   ar
    15    29    30   ar
    16    30    32    1
    17    32    34    1
    18    34    35   ar
    19    35    36   ar
    20    36    37   ar
    21    37    38   ar
    22    38    40    1
    23    40    41    1
    24    41    42    1
    25    42    43    1
    26    43    44    1
    27    44    45    1
    28    38    39   ar
    29    30    31   ar
    30     4     5   ar
    31     5     6   ar
    32    13    14   ar
    33    14    15    2
    34    14    16   ar
    35    16    19    1
    36    19    20   ar
    37    20    21   ar
    38    21    22   ar
    39    22    23   ar
    40    23    24   ar
    41    16    17   ar
    42    17    18    1
    43    17    12   ar
    44     6     1   ar
    45    24    19   ar
    46    31    26   ar
    47    39    34   ar
    48    45    40    1
    49     9    10    1
    50    32    33    1
@<TRIPOS>MOLECULE
*****
 45 50 0 0 0
SMALL
GASTEIGER

@<TRIPOS>ATOM
      1 C         138.9209  139.8062  160.0115 C.ar    1  UNL1        0.0507
      2 C         137.6972  139.5345  160.8354 C.ar    1  UNL1        0.0178
      3 C         137.8084  138.7439  162.1052 C.ar    1  UNL1        0.0388
      4 C         139.1433  138.2249  162.5511 C.ar    1  UNL1        0.1473
      5 C         140.3669  138.4966  161.7272 C.ar    1  UNL1        0.0388
      6 C         140.2557  139.2873  160.4574 C.ar    1  UNL1        0.0178
      7 C         138.4801  142.0592  158.7950 C.2     1  UNL1        0.2553
      8 O         138.2617  142.7310  160.1183 O.2     1  UNL1       -0.2696
      9 N         138.8097  140.5969  158.7416 N.am    1  UNL1       -0.2802
     10 H         138.9530  140.1560  157.8731 H       1  UNL1        0.1552
     11 C         136.3612  141.5121  156.3741 C.3     1  UNL1        0.0520
     12 C         137.3950  142.5983  156.4124 C.ar    1  UNL1        0.0636
     13 C         138.3689  142.8499  157.5251 C.ar    1  UNL1        0.1244
     14 C         139.2121  144.0308  157.1451 C.ar    1  UNL1        0.2844
     15 O         140.3145  144.6283  157.9682 O.2     1  UNL1       -0.2650
     16 N         138.7593  144.5092  155.7974 N.ar    1  UNL1       -0.2144
     17 N         137.6362  143.6239  155.3446 N.ar    1  UNL1       -0.2657
     18 C         136.8862  143.7432  154.0511 C.3     1  UNL1        0.1518
     19 C         139.3295  145.6691  155.0363 C.ar    1  UNL1        0.0841
     20 C         138.8414  147.0603  155.3127 C.ar    1  UNL1        0.0192
     21 C         139.4115  148.2202  154.5515 C.ar    1  UNL1        0.0015
     22 C         140.4698  147.9890  153.5140 C.ar    1  UNL1        0.0001
     23 C         140.9580  146.5978  153.2375 C.ar    1  UNL1        0.0015
     24 C         140.3878  145.4379  153.9987 C.ar    1  UNL1        0.0192
     25 O         139.2545  137.4343  163.8210 O.3     1  UNL1       -0.4360
     26 C         139.1417  138.1257  165.1473 C.ar    1  UNL1        0.2336
     27 C         137.9424  137.8897  166.0167 C.ar    1  UNL1        0.0788
     28 C         137.8297  138.5812  167.3430 C.ar    1  UNL1        0.1067
     29 N         138.9163  139.5087  167.8000 N.ar    1  UNL1       -0.2118
     30 C         140.1157  139.7447  166.9307 C.ar    1  UNL1        0.2232
     31 N         140.2284  139.0533  165.6044 N.ar    1  UNL1       -0.1783
     32 N         141.2024  140.6723  167.3876 N.pl3   1  UNL1       -0.2824
     33 H         141.5437  140.6143  168.3092 H       1  UNL1        0.1551
     34 C         141.7689  141.6881  166.4404 C.ar    1  UNL1        0.0517
     35 C         143.2471  141.9413  166.4084 C.ar    1  UNL1        0.0148
     36 C         143.8136  142.9570  165.4612 C.ar    1  UNL1        0.0025
     37 C         142.9021  143.7197  164.5461 C.ar    1  UNL1        0.0146
     38 C         141.4240  143.4665  164.5782 C.ar    1  UNL1        0.0492
     39 C         140.8574  142.4507  165.5253 C.ar    1  UNL1        0.0292
     40 N         140.5124  144.2292  163.6630 N.pl3   1  UNL1       -0.3027
     41 C         139.0258  144.0671  163.7794 C.3     1  UNL1        0.1231
     42 C         138.1142  144.8298  162.8643 C.3     1  UNL1        0.1636
     43 O         138.6893  145.7545  161.8327 O.3     1  UNL1       -0.3501
     44 C         140.1761  145.9166  161.7164 C.3     1  UNL1        0.1636
     45 C         141.0875  145.1539  162.6315 C.3     1  UNL1        0.1231
@<TRIPOS>BOND
     1    11    12    1
     2    12    13   ar
     3    13     7    1
     4     7     8    2
     5     7     9   am
     6     9     1    1
     7     1     2   ar
     8     2     3   ar
     9     3     4   ar
    10     4    25    1
    11    25    26    1
    12    26    27   ar
    13    27    28   ar
    14    28    29   ar
    15    29    30   ar
    16    30    32    1
    17    32    34    1
    18    34    35   ar
    19    35    36   ar
    20    36    37   ar
    21    37    38   ar
    22    38    40    1
    23    40    41    1
    24    41    42    1
    25    42    43    1
    26    43    44    1
    27    44    45    1
    28    38    39   ar
    29    30    31   ar
    30     4     5   ar
    31     5     6   ar
    32    13    14   ar
    33    14    15    2
    34    14    16   ar
    35    16    19    1
    36    19    20   ar
    37    20    21   ar
    38    21    22   ar
    39    22    23   ar
    40    23    24   ar
    41    16    17   ar
    42    17    18    1
    43    17    12   ar
    44     6     1   ar
    45    24    19   ar
    46    31    26   ar
    47    39    34   ar
    48    45    40    1
    49     9    10    1
    50    32    33    1
@<TRIPOS>MOLECULE
*****
 45 50 0 0 0
SMALL
GASTEIGER

@<TRIPOS>ATOM
      1 C         142.2754  144.4923  162.0604 C.ar    1  UNL1        0.0507
      2 C         141.3855  144.3586  163.2604 C.ar    1  UNL1        0.0178
      3 C         141.9695  143.9779  164.5885 C.ar    1  UNL1        0.0388
      4 C         143.4435  143.7307  164.7165 C.ar    1  UNL1        0.1473
      5 C         144.3334  143.8644  163.5165 C.ar    1  UNL1        0.0388
      6 C         143.7494  144.2452  162.1884 C.ar    1  UNL1        0.0178
      7 C         141.3406  143.8095  159.7344 C.2     1  UNL1        0.2553
      8 O         141.5737  142.3650  160.0648 O.2     1  UNL1       -0.2696
      9 N         141.6914  144.8731  160.7322 N.am    1  UNL1       -0.2802
     10 H         141.5384  145.8212  160.5153 H       1  UNL1        0.1552
     11 C         138.8180  142.3556  158.2605 C.3     1  UNL1        0.0520
     12 C         139.5971  143.5219  157.7288 C.ar    1  UNL1        0.0636
     13 C         140.7565  144.1903  158.4063 C.ar    1  UNL1        0.1244
     14 C         141.2295  145.3062  157.5225 C.ar    1  UNL1        0.2844
     15 O         142.3694  146.2371  157.8117 O.2     1  UNL1       -0.2650
     16 N         140.3623  145.3276  156.2987 N.ar    1  UNL1       -0.2144
     17 N         139.3534  144.2249  156.4262 N.ar    1  UNL1       -0.2657
     18 C         138.2879  143.8848  155.4267 C.3     1  UNL1        0.1518
     19 C         140.4828  146.2837  155.1494 C.ar    1  UNL1        0.0841
     20 C         139.7445  147.5891  155.1790 C.ar    1  UNL1        0.0192
     21 C         139.8651  148.5452  154.0297 C.ar    1  UNL1        0.0015
     22 C         140.7240  148.1961  152.8505 C.ar    1  UNL1        0.0001
     23 C         141.4624  146.8907  152.8208 C.ar    1  UNL1        0.0015
     24 C         141.3417  145.9346  153.9702 C.ar    1  UNL1        0.0192
     25 O         144.0275  143.3499  166.0447 O.3     1  UNL1       -0.4360
     26 C         143.4510  142.1994  166.8154 C.ar    1  UNL1        0.2336
     27 C         143.3865  142.2570  168.3129 C.ar    1  UNL1        0.0788
     28 C         142.8100  141.1063  169.0835 C.ar    1  UNL1        0.1067
     29 N         142.2980  139.8983  168.3567 N.ar    1  UNL1       -0.2118
     30 C         142.3625  139.8407  166.8592 C.ar    1  UNL1        0.2232
     31 N         142.9390  140.9912  166.0885 N.ar    1  UNL1       -0.1783
     32 N         141.8506  138.6326  166.1323 N.pl3   1  UNL1       -0.2824
     33 H         142.2501  137.7492  166.3033 H       1  UNL1        0.1551
     34 C         140.7298  138.7704  165.1449 C.ar    1  UNL1        0.0517
     35 C         140.1059  137.5464  164.5428 C.ar    1  UNL1        0.0148
     36 C         138.9852  137.6841  163.5555 C.ar    1  UNL1        0.0025
     37 C         138.4883  139.0459  163.1702 C.ar    1  UNL1        0.0146
     38 C         139.1121  140.2700  163.7723 C.ar    1  UNL1        0.0492
     39 C         140.2328  140.1322  164.7596 C.ar    1  UNL1        0.0292
     40 N         138.6151  141.6319  163.3870 N.pl3   1  UNL1       -0.3027
     41 C         138.5468  142.0238  161.9407 C.3     1  UNL1        0.1231
     42 C         138.0498  143.3857  161.5554 C.3     1  UNL1        0.1636
     43 O         137.6212  144.3556  162.6164 O.3     1  UNL1       -0.3501
     44 C         137.6896  143.9635  164.0627 C.3     1  UNL1        0.1636
     45 C         138.1865  142.6017  164.4480 C.3     1  UNL1        0.1231
@<TRIPOS>BOND
     1    11    12    1
     2    12    13   ar
     3    13     7    1
     4     7     8    2
     5     7     9   am
     6     9     1    1
     7     1     2   ar
     8     2     3   ar
     9     3     4   ar
    10     4    25    1
    11    25    26    1
    12    26    27   ar
    13    27    28   ar
    14    28    29   ar
    15    29    30   ar
    16    30    32    1
    17    32    34    1
    18    34    35   ar
    19    35    36   ar
    20    36    37   ar
    21    37    38   ar
    22    38    40    1
    23    40    41    1
    24    41    42    1
    25    42    43    1
    26    43    44    1
    27    44    45    1
    28    38    39   ar
    29    30    31   ar
    30     4     5   ar
    31     5     6   ar
    32    13    14   ar
    33    14    15    2
    34    14    16   ar
    35    16    19    1
    36    19    20   ar
    37    20    21   ar
    38    21    22   ar
    39    22    23   ar
    40    23    24   ar
    41    16    17   ar
    42    17    18    1
    43    17    12   ar
    44     6     1   ar
    45    24    19   ar
    46    31    26   ar
    47    39    34   ar
    48    45    40    1
    49     9    10    1
    50    32    33    1
@<TRIPOS>MOLECULE
*****
 45 50 0 0 0
SMALL
GASTEIGER

@<TRIPOS>ATOM
      1 C         143.8649  139.0328  162.8283 C.ar    1  UNL1        0.0507
      2 C         144.8317  139.6297  163.8075 C.ar    1  UNL1        0.0178
      3 C         144.5598  139.5391  165.2799 C.ar    1  UNL1        0.0388
      4 C         143.3212  138.8516  165.7730 C.ar    1  UNL1        0.1473
      5 C         142.3544  138.2547  164.7937 C.ar    1  UNL1        0.0388
      6 C         142.6262  138.3453  163.3213 C.ar    1  UNL1        0.0178
      7 C         143.4692  140.1858  160.5339 C.2     1  UNL1        0.2553
      8 O         142.5298  141.1577  161.1843 O.2     1  UNL1       -0.2696
      9 N         144.1367  139.1234  161.3558 N.am    1  UNL1       -0.2802
     10 H         144.7533  138.4856  160.9289 H       1  UNL1        0.1552
     11 C         142.4913  138.0507  158.2679 C.3     1  UNL1        0.0520
     12 C         143.2915  139.2950  158.0200 C.ar    1  UNL1        0.0636
     13 C         143.7410  140.2764  159.0615 C.ar    1  UNL1        0.1244
     14 C         144.5101  141.3642  158.3721 C.ar    1  UNL1        0.2844
     15 O         145.1423  142.5525  159.0342 O.2     1  UNL1       -0.2650
     16 N         144.5359  141.0552  156.9046 N.ar    1  UNL1       -0.2144
     17 N         143.7828  139.7763  156.6868 N.ar    1  UNL1       -0.2657
     18 C         143.5600  139.0979  155.3677 C.3     1  UNL1        0.1518
     19 C         145.1984  141.8801  155.8414 C.ar    1  UNL1        0.0841
     20 C         146.6766  141.7642  155.6144 C.ar    1  UNL1        0.0192
     21 C         147.3391  142.5892  154.5512 C.ar    1  UNL1        0.0015
     22 C         146.5235  143.5301  153.7149 C.ar    1  UNL1        0.0001
     23 C         145.0452  143.6461  153.9418 C.ar    1  UNL1        0.0015
     24 C         144.3828  142.8210  155.0051 C.ar    1  UNL1        0.0192
     25 O         143.0493  138.7610  167.2454 O.3     1  UNL1       -0.4360
     26 C         142.1447  139.7600  167.9039 C.ar    1  UNL1        0.2336
     27 C         141.6297  139.5063  169.2897 C.ar    1  UNL1        0.0788
     28 C         140.7250  140.5053  169.9482 C.ar    1  UNL1        0.1067
     29 N         140.3355  141.7580  169.2209 N.ar    1  UNL1       -0.2118
     30 C         140.8506  142.0118  167.8352 C.ar    1  UNL1        0.2232
     31 N         141.7552  141.0128  167.1767 N.ar    1  UNL1       -0.1783
     32 N         140.4611  143.2645  167.1079 N.pl3   1  UNL1       -0.2824
     33 H         140.7712  144.1399  167.4346 H       1  UNL1        0.1551
     34 C         139.5990  143.1834  165.8830 C.ar    1  UNL1        0.0517
     35 C         138.9051  144.4110  165.3717 C.ar    1  UNL1        0.0148
     36 C         138.0430  144.3300  164.1468 C.ar    1  UNL1        0.0025
     37 C         137.8750  143.0213  163.4333 C.ar    1  UNL1        0.0146
     38 C         138.5689  141.7937  163.9446 C.ar    1  UNL1        0.0492
     39 C         139.4309  141.8748  165.1695 C.ar    1  UNL1        0.0292
     40 N         138.4008  140.4851  163.2310 N.pl3   1  UNL1       -0.3027
     41 C         137.7305  140.4428  161.8898 C.3     1  UNL1        0.1231
     42 C         137.5624  139.1342  161.1762 C.3     1  UNL1        0.1636
     43 O         138.0646  137.8677  161.8038 O.3     1  UNL1       -0.3501
     44 C         138.7350  137.9100  163.1451 C.3     1  UNL1        0.1636
     45 C         138.9031  139.2186  163.8587 C.3     1  UNL1        0.1231
@<TRIPOS>BOND
     1    11    12    1
     2    12    13   ar
     3    13     7    1
     4     7     8    2
     5     7     9   am
     6     9     1    1
     7     1     2   ar
     8     2     3   ar
     9     3     4   ar
    10     4    25    1
    11    25    26    1
    12    26    27   ar
    13    27    28   ar
    14    28    29   ar
    15    29    30   ar
    16    30    32    1
    17    32    34    1
    18    34    35   ar
    19    35    36   ar
    20    36    37   ar
    21    37    38   ar
    22    38    40    1
    23    40    41    1
    24    41    42    1
    25    42    43    1
    26    43    44    1
    27    44    45    1
    28    38    39   ar
    29    30    31   ar
    30     4     5   ar
    31     5     6   ar
    32    13    14   ar
    33    14    15    2
    34    14    16   ar
    35    16    19    1
    36    19    20   ar
    37    20    21   ar
    38    21    22   ar
    39    22    23   ar
    40    23    24   ar
    41    16    17   ar
    42    17    18    1
    43    17    12   ar
    44     6     1   ar
    45    24    19   ar
    46    31    26   ar
    47    39    34   ar
    48    45    40    1
    49     9    10    1
    50    32    33    1
@<TRIPOS>MOLECULE
*****
 45 50 0 0 0
SMALL
GASTEIGER

@<TRIPOS>ATOM
      1 C         143.9587  140.4561  163.4769 C.ar    1  UNL1        0.0507
      2 C         144.0188  139.1372  164.1887 C.ar    1  UNL1        0.0178
      3 C         143.6969  139.0591  165.6517 C.ar    1  UNL1        0.0388
      4 C         143.3148  140.3000  166.4028 C.ar    1  UNL1        0.1473
      5 C         143.2548  141.6190  165.6910 C.ar    1  UNL1        0.0388
      6 C         143.5767  141.6971  164.2281 C.ar    1  UNL1        0.0178
      7 C         143.2233  140.2255  160.9958 C.2     1  UNL1        0.2553
      8 O         141.8440  139.8386  161.4406 O.2     1  UNL1       -0.2696
      9 N         144.2806  140.5342  162.0139 N.am    1  UNL1       -0.2802
     10 H         145.1859  140.7882  161.7220 H       1  UNL1        0.1552
     11 C         142.3544  138.0519  158.7219 C.3     1  UNL1        0.0520
     12 C         143.1458  139.3045  158.4876 C.ar    1  UNL1        0.0636
     13 C         143.5452  140.3036  159.5328 C.ar    1  UNL1        0.1244
     14 C         144.3229  141.3944  158.8581 C.ar    1  UNL1        0.2844
     15 O         144.9153  142.5986  159.5280 O.2     1  UNL1       -0.2650
     16 N         144.4043  141.0695  157.3960 N.ar    1  UNL1       -0.2144
     17 N         143.6768  139.7779  157.1670 N.ar    1  UNL1       -0.2657
     18 C         143.5096  139.0818  155.8488 C.3     1  UNL1        0.1518
     19 C         145.0923  141.8918  156.3471 C.ar    1  UNL1        0.0841
     20 C         146.5888  141.9945  156.3365 C.ar    1  UNL1        0.0192
     21 C         147.2768  142.8168  155.2876 C.ar    1  UNL1        0.0015
     22 C         146.4684  143.5366  154.2492 C.ar    1  UNL1        0.0001
     23 C         144.9719  143.4341  154.2597 C.ar    1  UNL1        0.0015
     24 C         144.2839  142.6117  155.3087 C.ar    1  UNL1        0.0192
     25 O         142.9929  140.2219  167.8658 O.3     1  UNL1       -0.4360
     26 C         141.5661  140.1100  168.3149 C.ar    1  UNL1        0.2336
     27 C         141.2015  140.4147  169.7376 C.ar    1  UNL1        0.0788
     28 C         139.7746  140.3027  170.1866 C.ar    1  UNL1        0.1067
     29 N         138.7125  139.8860  169.2129 N.ar    1  UNL1       -0.2118
     30 C         139.0771  139.5813  167.7902 C.ar    1  UNL1        0.2232
     31 N         140.5039  139.6932  167.3412 N.ar    1  UNL1       -0.1783
     32 N         138.0149  139.1645  166.8165 N.pl3   1  UNL1       -0.2824
     33 H         137.0983  138.9924  167.1318 H       1  UNL1        0.1551
     34 C         138.3494  139.0100  165.3624 C.ar    1  UNL1        0.0517
     35 C         138.6465  137.6510  164.8015 C.ar    1  UNL1        0.0148
     36 C         138.9810  137.4964  163.3475 C.ar    1  UNL1        0.0025
     37 C         139.0182  138.7010  162.4544 C.ar    1  UNL1        0.0146
     38 C         138.7210  140.0600  163.0153 C.ar    1  UNL1        0.0492
     39 C         138.3866  140.2146  164.4693 C.ar    1  UNL1        0.0292
     40 N         138.7582  141.2646  162.1221 N.pl3   1  UNL1       -0.3027
     41 C         138.4399  141.1263  160.6628 C.3     1  UNL1        0.1231
     42 C         138.4771  142.3309  159.7696 C.3     1  UNL1        0.1636
     43 O         138.8327  143.6737  160.3358 O.3     1  UNL1       -0.3501
     44 C         139.1510  143.8119  161.7951 C.3     1  UNL1        0.1636
     45 C         139.1137  142.6074  162.6882 C.3     1  UNL1        0.1231
@<TRIPOS>BOND
     1    11    12    1
     2    12    13   ar
     3    13     7    1
     4     7     8    2
     5     7     9   am
     6     9     1    1
     7     1     2   ar
     8     2     3   ar
     9     3     4   ar
    10     4    25    1
    11    25    26    1
    12    26    27   ar
    13    27    28   ar
    14    28    29   ar
    15    29    30   ar
    16    30    32    1
    17    32    34    1
    18    34    35   ar
    19    35    36   ar
    20    36    37   ar
    21    37    38   ar
    22    38    40    1
    23    40    41    1
    24    41    42    1
    25    42    43    1
    26    43    44    1
    27    44    45    1
    28    38    39   ar
    29    30    31   ar
    30     4     5   ar
    31     5     6   ar
    32    13    14   ar
    33    14    15    2
    34    14    16   ar
    35    16    19    1
    36    19    20   ar
    37    20    21   ar
    38    21    22   ar
    39    22    23   ar
    40    23    24   ar
    41    16    17   ar
    42    17    18    1
    43    17    12   ar
    44     6     1   ar
    45    24    19   ar
    46    31    26   ar
    47    39    34   ar
    48    45    40    1
    49     9    10    1
    50    32    33    1
@<TRIPOS>MOLECULE
*****
 45 50 0 0 0
SMALL
GASTEIGER

@<TRIPOS>ATOM
      1 C         143.0098  138.7821  157.7401 C.ar    1  UNL1        0.0507
      2 C         143.0925  140.0099  156.8823 C.ar    1  UNL1        0.0178
      3 C         143.4267  141.3352  157.5001 C.ar    1  UNL1        0.0388
      4 C         143.6781  141.4329  158.9757 C.ar    1  UNL1        0.1473
      5 C         143.5953  140.2051  159.8334 C.ar    1  UNL1        0.0388
      6 C         143.2611  138.8798  159.2156 C.ar    1  UNL1        0.0178
      7 C         143.6078  136.8387  156.1228 C.2     1  UNL1        0.2553
      8 O         144.8742  137.5461  155.7411 O.2     1  UNL1       -0.2696
      9 N         142.6756  137.4567  157.1223 N.am    1  UNL1       -0.2802
     10 H         141.8444  136.9924  157.3728 H       1  UNL1        0.1552
     11 C         142.0878  136.3801  153.2717 C.3     1  UNL1        0.0520
     12 C         142.5749  135.3025  154.1945 C.ar    1  UNL1        0.0636
     13 C         143.2736  135.5133  155.5050 C.ar    1  UNL1        0.1244
     14 C         143.5795  134.1660  156.0893 C.ar    1  UNL1        0.2844
     15 O         144.2731  133.9077  157.3939 O.2     1  UNL1       -0.2650
     16 N         143.0698  133.1225  155.1399 N.ar    1  UNL1       -0.2144
     17 N         142.4489  133.8249  153.9688 N.ar    1  UNL1       -0.2657
     18 C         141.8137  133.1655  152.7807 C.3     1  UNL1        0.1518
     19 C         143.1643  131.6375  155.3284 C.ar    1  UNL1        0.0841
     20 C         141.9156  130.8174  155.4624 C.ar    1  UNL1        0.0192
     21 C         142.0101  129.3324  155.6509 C.ar    1  UNL1        0.0015
     22 C         143.3535  128.6673  155.7054 C.ar    1  UNL1        0.0001
     23 C         144.6024  129.4873  155.5714 C.ar    1  UNL1        0.0015
     24 C         144.5077  130.9724  155.3829 C.ar    1  UNL1        0.0192
     25 O         144.0123  142.7583  159.5935 O.3     1  UNL1       -0.4360
     26 C         143.9941  142.9165  161.0849 C.ar    1  UNL1        0.2336
     27 C         145.0917  142.3207  161.9158 C.ar    1  UNL1        0.0788
     28 C         145.0735  142.4790  163.4074 C.ar    1  UNL1        0.1067
     29 N         143.9577  143.2329  164.0680 N.ar    1  UNL1       -0.2118
     30 C         142.8601  143.8287  163.2372 C.ar    1  UNL1        0.2232
     31 N         142.8783  143.6705  161.7457 N.ar    1  UNL1       -0.1783
     32 N         141.7443  144.5827  163.8978 N.pl3   1  UNL1       -0.2824
     33 H         141.8968  145.4971  164.2293 H       1  UNL1        0.1551
     34 C         140.3963  143.9435  164.0535 C.ar    1  UNL1        0.0517
     35 C         139.2458  144.7411  164.5922 C.ar    1  UNL1        0.0148
     36 C         137.8977  144.1019  164.7479 C.ar    1  UNL1        0.0025
     37 C         137.7002  142.6652  164.3649 C.ar    1  UNL1        0.0146
     38 C         138.8507  141.8676  163.8262 C.ar    1  UNL1        0.0492
     39 C         140.1988  142.5067  163.6705 C.ar    1  UNL1        0.0292
     40 N         138.6532  140.4308  163.4432 N.pl3   1  UNL1       -0.3027
     41 C         137.9299  140.0852  162.1753 C.3     1  UNL1        0.1231
     42 C         137.7324  138.6484  161.7923 C.3     1  UNL1        0.1636
     43 O         138.2581  137.5572  162.6772 O.3     1  UNL1       -0.3501
     44 C         138.9814  137.9029  163.9451 C.3     1  UNL1        0.1636
     45 C         139.1789  139.3396  164.3281 C.3     1  UNL1        0.1231
@<TRIPOS>BOND
     1    11    12    1
     2    12    13   ar
     3    13     7    1
     4     7     8    2
     5     7     9   am
     6     9     1    1
     7     1     2   ar
     8     2     3   ar
     9     3     4   ar
    10     4    25    1
    11    25    26    1
    12    26    27   ar
    13    27    28   ar
    14    28    29   ar
    15    29    30   ar
    16    30    32    1
    17    32    34    1
    18    34    35   ar
    19    35    36   ar
    20    36    37   ar
    21    37    38   ar
    22    38    40    1
    23    40    41    1
    24    41    42    1
    25    42    43    1
    26    43    44    1
    27    44    45    1
    28    38    39   ar
    29    30    31   ar
    30     4     5   ar
    31     5     6   ar
    32    13    14   ar
    33    14    15    2
    34    14    16   ar
    35    16    19    1
    36    19    20   ar
    37    20    21   ar
    38    21    22   ar
    39    22    23   ar
    40    23    24   ar
    41    16    17   ar
    42    17    18    1
    43    17    12   ar
    44     6     1   ar
    45    24    19   ar
    46    31    26   ar
    47    39    34   ar
    48    45    40    1
    49     9    10    1
    50    32    33    1
@<TRIPOS>MOLECULE
*****
 45 50 0 0 0
SMALL
GASTEIGER

@<TRIPOS>ATOM
      1 C         142.6917  138.8349  156.9898 C.ar    1  UNL1        0.0507
      2 C         142.9602  139.0420  158.4509 C.ar    1  UNL1        0.0178
      3 C         143.2463  140.4187  158.9731 C.ar    1  UNL1        0.0388
      4 C         143.2637  141.5884  158.0342 C.ar    1  UNL1        0.1473
      5 C         142.9951  141.3813  156.5730 C.ar    1  UNL1        0.0388
      6 C         142.7091  140.0046  156.0508 C.ar    1  UNL1        0.0178
      7 C         143.4919  136.6688  155.7991 C.2     1  UNL1        0.2553
      8 O         144.8644  137.2562  155.6529 O.2     1  UNL1       -0.2696
      9 N         142.4056  137.4582  156.4675 N.am    1  UNL1       -0.2802
     10 H         141.5048  137.0726  156.5634 H       1  UNL1        0.1552
     11 C         141.9460  135.9564  153.0148 C.3     1  UNL1        0.0520
     12 C         142.4953  134.9647  153.9970 C.ar    1  UNL1        0.0636
     13 C         143.2059  135.2921  155.2768 C.ar    1  UNL1        0.1244
     14 C         143.5802  134.0011  155.9426 C.ar    1  UNL1        0.2844
     15 O         144.3062  133.8603  157.2476 O.2     1  UNL1       -0.2650
     16 N         143.1009  132.8758  155.0743 N.ar    1  UNL1       -0.2144
     17 N         142.4304  133.4712  153.8718 N.ar    1  UNL1       -0.2657
     18 C         141.8049  132.7075  152.7426 C.3     1  UNL1        0.1518
     19 C         143.2636  131.4120  155.3586 C.ar    1  UNL1        0.0841
     20 C         142.0536  130.5419  155.5283 C.ar    1  UNL1        0.0192
     21 C         142.2163  129.0781  155.8126 C.ar    1  UNL1        0.0015
     22 C         143.5890  128.4844  155.9271 C.ar    1  UNL1        0.0001
     23 C         144.7991  129.3545  155.7573 C.ar    1  UNL1        0.0015
     24 C         144.6363  130.8183  155.4731 C.ar    1  UNL1        0.0192
     25 O         143.5498  142.9652  158.5564 O.3     1  UNL1       -0.4360
     26 C         142.4211  143.8509  158.9938 C.ar    1  UNL1        0.2336
     27 C         141.5458  144.5112  157.9701 C.ar    1  UNL1        0.0788
     28 C         140.4171  145.3970  158.4075 C.ar    1  UNL1        0.1067
     29 N         140.1635  145.6225  159.8686 N.ar    1  UNL1       -0.2118
     30 C         141.0387  144.9622  160.8923 C.ar    1  UNL1        0.2232
     31 N         142.1675  144.0764  160.4550 N.ar    1  UNL1       -0.1783
     32 N         140.7852  145.1877  162.3534 N.pl3   1  UNL1       -0.2824
     33 H         141.2671  145.9001  162.8324 H       1  UNL1        0.1551
     34 C         139.7974  144.3276  163.0847 C.ar    1  UNL1        0.0517
     35 C         138.9007  144.9329  164.1238 C.ar    1  UNL1        0.0148
     36 C         137.9130  144.0729  164.8551 C.ar    1  UNL1        0.0025
     37 C         137.8220  142.6077  164.5473 C.ar    1  UNL1        0.0146
     38 C         138.7187  142.0024  163.5083 C.ar    1  UNL1        0.0492
     39 C         139.7064  142.8624  162.7770 C.ar    1  UNL1        0.0292
     40 N         138.6276  140.5371  163.2005 N.pl3   1  UNL1       -0.3027
     41 C         137.8149  140.0654  162.0314 C.3     1  UNL1        0.1231
     42 C         137.7238  138.6000  161.7237 C.3     1  UNL1        0.1636
     43 O         138.4455  137.6065  162.5851 O.3     1  UNL1       -0.3501
     44 C         139.2582  138.0783  163.7543 C.3     1  UNL1        0.1636
     45 C         139.3493  139.5436  164.0620 C.3     1  UNL1        0.1231
@<TRIPOS>BOND
     1    11    12    1
     2    12    13   ar
     3    13     7    1
     4     7     8    2
     5     7     9   am
     6     9     1    1
     7     1     2   ar
     8     2     3   ar
     9     3     4   ar
    10     4    25    1
    11    25    26    1
    12    26    27   ar
    13    27    28   ar
    14    28    29   ar
    15    29    30   ar
    16    30    32    1
    17    32    34    1
    18    34    35   ar
    19    35    36   ar
    20    36    37   ar
    21    37    38   ar
    22    38    40    1
    23    40    41    1
    24    41    42    1
    25    42    43    1
    26    43    44    1
    27    44    45    1
    28    38    39   ar
    29    30    31   ar
    30     4     5   ar
    31     5     6   ar
    32    13    14   ar
    33    14    15    2
    34    14    16   ar
    35    16    19    1
    36    19    20   ar
    37    20    21   ar
    38    21    22   ar
    39    22    23   ar
    40    23    24   ar
    41    16    17   ar
    42    17    18    1
    43    17    12   ar
    44     6     1   ar
    45    24    19   ar
    46    31    26   ar
    47    39    34   ar
    48    45    40    1
    49     9    10    1
    50    32    33    1
@<TRIPOS>MOLECULE
*****
 45 50 0 0 0
SMALL
GASTEIGER

@<TRIPOS>ATOM
      1 C         142.8328  138.7051  157.2851 C.ar    1  UNL1        0.0507
      2 C         142.9093  139.8858  156.3632 C.ar    1  UNL1        0.0178
      3 C         143.2091  141.2487  156.9132 C.ar    1  UNL1        0.0388
      4 C         143.4323  141.4309  158.3853 C.ar    1  UNL1        0.1473
      5 C         143.3559  140.2502  159.3073 C.ar    1  UNL1        0.0388
      6 C         143.0561  138.8873  158.7572 C.ar    1  UNL1        0.0178
      7 C         143.5537  136.6303  155.8975 C.2     1  UNL1        0.2553
      8 O         144.8741  137.2813  155.6100 O.2     1  UNL1       -0.2696
      9 N         142.5331  137.3422  156.7351 N.am    1  UNL1       -0.2802
     10 H         141.6664  136.9148  156.9238 H       1  UNL1        0.1552
     11 C         141.9906  135.9899  153.1053 C.3     1  UNL1        0.0520
     12 C         142.5354  134.9731  154.0640 C.ar    1  UNL1        0.0636
     13 C         143.2539  135.2673  155.3474 C.ar    1  UNL1        0.1244
     14 C         143.6200  133.9595  155.9842 C.ar    1  UNL1        0.2844
     15 O         144.3501  133.7850  157.2828 O.2     1  UNL1       -0.2650
     16 N         143.1278  132.8568  155.0944 N.ar    1  UNL1       -0.2144
     17 N         142.4574  133.4832  153.9076 N.ar    1  UNL1       -0.2657
     18 C         141.8209  132.7487  152.7650 C.3     1  UNL1        0.1518
     19 C         143.2792  131.3861  155.3469 C.ar    1  UNL1        0.0841
     20 C         144.6444  130.7648  155.3650 C.ar    1  UNL1        0.0192
     21 C         144.7959  129.2941  155.6176 C.ar    1  UNL1        0.0015
     22 C         143.5821  128.4444  155.8520 C.ar    1  UNL1        0.0001
     23 C         142.2168  129.0656  155.8339 C.ar    1  UNL1        0.0015
     24 C         142.0655  130.5364  155.5813 C.ar    1  UNL1        0.0192
     25 O         143.7321  142.7939  158.9354 O.3     1  UNL1       -0.4360
     26 C         142.6341  143.6157  159.5428 C.ar    1  UNL1        0.2336
     27 C         141.4474  144.0110  158.7148 C.ar    1  UNL1        0.0788
     28 C         140.3493  144.8329  159.3223 C.ar    1  UNL1        0.1067
     29 N         140.4380  145.2593  160.7577 N.ar    1  UNL1       -0.2118
     30 C         141.6247  144.8639  161.5856 C.ar    1  UNL1        0.2232
     31 N         142.7227  144.0421  160.9782 N.ar    1  UNL1       -0.1783
     32 N         141.7133  145.2903  163.0210 N.pl3   1  UNL1       -0.2824
     33 H         141.3866  146.1787  163.2916 H       1  UNL1        0.1551
     34 C         142.2999  144.3632  164.0440 C.ar    1  UNL1        0.0517
     35 C         143.7792  144.3596  164.2923 C.ar    1  UNL1        0.0148
     36 C         144.3657  143.4325  165.3152 C.ar    1  UNL1        0.0025
     37 C         143.4730  142.5090  166.0898 C.ar    1  UNL1        0.0146
     38 C         141.9937  142.5126  165.8415 C.ar    1  UNL1        0.0492
     39 C         141.4071  143.4396  164.8186 C.ar    1  UNL1        0.0292
     40 N         141.1009  141.5890  166.6162 N.pl3   1  UNL1       -0.3027
     41 C         140.1949  140.6386  165.8912 C.3     1  UNL1        0.1231
     42 C         139.3021  139.7150  166.6659 C.3     1  UNL1        0.1636
     43 O         139.3155  139.7419  168.1656 O.3     1  UNL1       -0.3501
     44 C         140.2217  140.6924  168.8906 C.3     1  UNL1        0.1636
     45 C         141.1143  141.6159  168.1159 C.3     1  UNL1        0.1231
@<TRIPOS>BOND
     1    11    12    1
     2    12    13   ar
     3    13     7    1
     4     7     8    2
     5     7     9   am
     6     9     1    1
     7     1     2   ar
     8     2     3   ar
     9     3     4   ar
    10     4    25    1
    11    25    26    1
    12    26    27   ar
    13    27    28   ar
    14    28    29   ar
    15    29    30   ar
    16    30    32    1
    17    32    34    1
    18    34    35   ar
    19    35    36   ar
    20    36    37   ar
    21    37    38   ar
    22    38    40    1
    23    40    41    1
    24    41    42    1
    25    42    43    1
    26    43    44    1
    27    44    45    1
    28    38    39   ar
    29    30    31   ar
    30     4     5   ar
    31     5     6   ar
    32    13    14   ar
    33    14    15    2
    34    14    16   ar
    35    16    19    1
    36    19    20   ar
    37    20    21   ar
    38    21    22   ar
    39    22    23   ar
    40    23    24   ar
    41    16    17   ar
    42    17    18    1
    43    17    12   ar
    44     6     1   ar
    45    24    19   ar
    46    31    26   ar
    47    39    34   ar
    48    45    40    1
    49     9    10    1
    50    32    33    1
@<TRIPOS>MOLECULE
*****
 45 50 0 0 0
SMALL
GASTEIGER

@<TRIPOS>ATOM
      1 C         142.5624  138.8013  159.1119 C.ar    1  UNL1        0.0507
      2 C         141.5737  139.9037  158.8729 C.ar    1  UNL1        0.0178
      3 C         141.6822  141.1878  159.6403 C.ar    1  UNL1        0.0388
      4 C         142.7794  141.3697  160.6468 C.ar    1  UNL1        0.1473
      5 C         143.7682  140.2673  160.8859 C.ar    1  UNL1        0.0388
      6 C         143.6597  138.9831  160.1184 C.ar    1  UNL1        0.0178
      7 C         143.0710  137.4031  156.9820 C.2     1  UNL1        0.2553
      8 O         143.7965  138.5734  156.3870 O.2     1  UNL1       -0.2696
      9 N         142.4540  137.5170  158.3444 N.am    1  UNL1       -0.2802
     10 H         141.9778  136.7489  158.7349 H       1  UNL1        0.1552
     11 C         142.1235  137.1001  153.8739 C.3     1  UNL1        0.0520
     12 C         142.5270  135.9797  154.7859 C.ar    1  UNL1        0.0636
     13 C         142.9625  136.1188  156.2145 C.ar    1  UNL1        0.1244
     14 C         143.2705  134.7484  156.7409 C.ar    1  UNL1        0.2844
     15 O         143.7410  134.4216  158.1272 O.2     1  UNL1       -0.2650
     16 N         143.0254  133.7622  155.6376 N.ar    1  UNL1       -0.2144
     17 N         142.5658  134.5231  154.4293 N.ar    1  UNL1       -0.2657
     18 C         142.2080  133.9314  153.0982 C.3     1  UNL1        0.1518
     19 C         143.2077  132.2761  155.7269 C.ar    1  UNL1        0.0841
     20 C         144.5792  131.6985  155.9149 C.ar    1  UNL1        0.0192
     21 C         144.7616  130.2124  156.0042 C.ar    1  UNL1        0.0015
     22 C         143.5723  129.3036  155.9055 C.ar    1  UNL1        0.0001
     23 C         142.2006  129.8810  155.7175 C.ar    1  UNL1        0.0015
     24 C         142.0184  131.3673  155.6282 C.ar    1  UNL1        0.0192
     25 O         142.8879  142.6539  161.4143 O.3     1  UNL1       -0.4360
     26 C         141.6609  143.4746  161.6803 C.ar    1  UNL1        0.2336
     27 C         141.3882  144.7025  160.8631 C.ar    1  UNL1        0.0788
     28 C         140.1611  145.5233  161.1291 C.ar    1  UNL1        0.1067
     29 N         139.2067  145.1160  162.2123 N.ar    1  UNL1       -0.2118
     30 C         139.4794  143.8881  163.0295 C.ar    1  UNL1        0.2232
     31 N         140.7064  143.0674  162.7635 N.ar    1  UNL1       -0.1783
     32 N         138.5251  143.4809  164.1127 N.pl3   1  UNL1       -0.2824
     33 H         137.7182  144.0178  164.2853 H       1  UNL1        0.1551
     34 C         138.8001  142.2554  164.9329 C.ar    1  UNL1        0.0517
     35 C         138.0148  141.0002  164.6925 C.ar    1  UNL1        0.0148
     36 C         138.2898  139.7748  165.5127 C.ar    1  UNL1        0.0025
     37 C         139.3501  139.8046  166.5732 C.ar    1  UNL1        0.0146
     38 C         140.1354  141.0598  166.8137 C.ar    1  UNL1        0.0492
     39 C         139.8604  142.2852  165.9935 C.ar    1  UNL1        0.0292
     40 N         141.1957  141.0895  167.8743 N.pl3   1  UNL1       -0.3027
     41 C         141.2457  140.0107  168.9152 C.3     1  UNL1        0.1231
     42 C         142.3060  140.0404  169.9759 C.3     1  UNL1        0.1636
     43 O         143.3163  141.1490  169.9955 O.3     1  UNL1       -0.3501
     44 C         143.2662  142.2279  168.9545 C.3     1  UNL1        0.1636
     45 C         142.2059  142.1981  167.8939 C.3     1  UNL1        0.1231
@<TRIPOS>BOND
     1    11    12    1
     2    12    13   ar
     3    13     7    1
     4     7     8    2
     5     7     9   am
     6     9     1    1
     7     1     2   ar
     8     2     3   ar
     9     3     4   ar
    10     4    25    1
    11    25    26    1
    12    26    27   ar
    13    27    28   ar
    14    28    29   ar
    15    29    30   ar
    16    30    32    1
    17    32    34    1
    18    34    35   ar
    19    35    36   ar
    20    36    37   ar
    21    37    38   ar
    22    38    40    1
    23    40    41    1
    24    41    42    1
    25    42    43    1
    26    43    44    1
    27    44    45    1
    28    38    39   ar
    29    30    31   ar
    30     4     5   ar
    31     5     6   ar
    32    13    14   ar
    33    14    15    2
    34    14    16   ar
    35    16    19    1
    36    19    20   ar
    37    20    21   ar
    38    21    22   ar
    39    22    23   ar
    40    23    24   ar
    41    16    17   ar
    42    17    18    1
    43    17    12   ar
    44     6     1   ar
    45    24    19   ar
    46    31    26   ar
    47    39    34   ar
    48    45    40    1
    49     9    10    1
    50    32    33    1
