@<TRIPOS>MOLECULE
*****
 33 36 0 0 0
SMALL
GASTEIGER

@<TRIPOS>ATOM
      1 C         142.0179  142.5194  162.4450 C.3     1  UNL1        0.1171
      2 N         141.5338  141.9060  163.2100 N.am    1  UNL1       -0.2556
      3 C         141.8885  142.3231  164.6065 C.2     1  UNL1        0.3150
      4 O         142.8210  143.4765  164.8308 O.2     1  UNL1       -0.2516
      5 N         141.3107  141.5869  165.7787 N.am    1  UNL1       -0.2256
      6 C         140.3783  140.4335  165.5544 C.2     1  UNL1        0.0380
      7 C         140.0236  140.0164  164.1579 C.2     1  UNL1        0.0448
      8 C         139.0847  138.8500  164.2468 C.2     1  UNL1        0.1723
      9 O         138.4779  138.1162  163.0878 O.2     1  UNL1       -0.2916
     10 C         138.8592  138.5462  165.6983 C.3     1  UNL1        0.0749
     11 C         139.6586  139.5248  166.5065 C.3     1  UNL1        0.0498
     12 C         140.6013  140.7527  162.9857 C.3     1  UNL1        0.1298
     13 C         141.6655  142.0040  167.1752 C.ar    1  UNL1        0.0592
     14 C         143.0872  141.9173  167.6455 C.ar    1  UNL1        0.0153
     15 C         143.4418  142.3345  169.0421 C.ar    1  UNL1        0.0012
     16 C         142.3748  142.8382  169.9682 C.ar    1  UNL1        0.0039
     17 C         140.9531  142.9248  169.4978 C.ar    1  UNL1        0.0727
     18 C         140.5984  142.5077  168.1014 C.ar    1  UNL1        0.0191
     19 C         139.8861  143.4285  170.4240 C.3     1  UNL1        0.4186
     20 F         138.8191  143.9323  171.3501 F       1  UNL1       -0.1659
     21 F         140.3750  144.8324  170.2237 F       1  UNL1       -0.1659
     22 F         139.3971  142.0247  170.6242 F       1  UNL1       -0.1659
     23 C         140.2466  140.3356  161.5891 C.ar    1  UNL1        0.0479
     24 C         141.1612  139.4266  160.8228 C.ar    1  UNL1        0.0027
     25 C         140.8066  139.0095  159.4263 C.ar    1  UNL1        0.0103
     26 C         139.5375  139.5015  158.7961 C.ar    1  UNL1        0.0728
     27 C         138.6229  140.4105  159.5624 C.ar    1  UNL1        0.0619
     28 C         138.9775  140.8276  160.9590 C.ar    1  UNL1        0.1792
     29 S         138.0629  141.7366  161.7253 S.O     1  UNL1        0.0579
     30 C         138.3077  143.2165  161.7299 C.3     1  UNL1        0.3254
     31 O         137.1897  141.4461  162.3159 O.co2   1  UNL1       -0.6774
     32 C         139.1829  139.0844  157.3996 C.1     1  UNL1        0.1006
     33 N         138.8284  138.6673  156.0030 N.1     1  UNL1       -0.1908
@<TRIPOS>UNITY_ATOM_ATTR
29 1
charge 1
31 1
charge -1
@<TRIPOS>BOND
     1     1     2    1
     2     2     3   am
     3     3     4    2
     4     3     5   am
     5     5    13    1
     6    13    14   ar
     7    14    15   ar
     8    15    16   ar
     9    16    17   ar
    10    17    19    1
    11    19    20    1
    12    19    21    1
    13    19    22    1
    14    17    18   ar
    15     5     6    1
    16     6     7    2
    17     7     8    1
    18     8     9    2
    19     8    10    1
    20    10    11    1
    21     7    12    1
    22    12    23    1
    23    23    24   ar
    24    24    25   ar
    25    25    26   ar
    26    26    32    1
    27    32    33    3
    28    26    27   ar
    29    27    28   ar
    30    28    29    1
    31    29    30    1
    32    29    31    2
    33    12     2    1
    34    28    23   ar
    35    18    13   ar
    36    11     6    1
@<TRIPOS>MOLECULE
*****
 33 36 0 0 0
SMALL
GASTEIGER

@<TRIPOS>ATOM
      1 C         142.0003  140.7941  162.2950 C.3     1  UNL1        0.1171
      2 N         141.4786  141.4542  162.9936 N.am    1  UNL1       -0.2556
      3 C         141.8973  141.2474  164.4190 C.2     1  UNL1        0.3150
      4 O         142.9339  140.2162  164.7542 O.2     1  UNL1       -0.2516
      5 N         141.2796  142.0718  165.5093 N.am    1  UNL1       -0.2256
      6 C         140.2431  143.1030  165.1742 C.2     1  UNL1        0.0380
      7 C         139.8243  143.3097  163.7487 C.2     1  UNL1        0.0448
      8 C         138.7866  144.3925  163.7229 C.2     1  UNL1        0.1723
      9 O         138.0932  144.9202  162.5019 O.2     1  UNL1       -0.2916
     10 C         138.5640  144.8549  165.1323 C.3     1  UNL1        0.0749
     11 C         139.4642  144.0580  166.0293 C.3     1  UNL1        0.0498
     12 C         140.4420  142.4854  162.6584 C.3     1  UNL1        0.1298
     13 C         141.6984  141.8650  166.9347 C.ar    1  UNL1        0.0592
     14 C         143.0124  142.4049  167.4162 C.ar    1  UNL1        0.0153
     15 C         143.4311  142.1981  168.8417 C.ar    1  UNL1        0.0012
     16 C         142.5359  141.4514  169.7857 C.ar    1  UNL1        0.0039
     17 C         141.2219  140.9115  169.3041 C.ar    1  UNL1        0.0727
     18 C         140.8031  141.1183  167.8787 C.ar    1  UNL1        0.0191
     19 C         140.3267  140.1648  170.2480 C.3     1  UNL1        0.4186
     20 F         139.4314  139.4181  171.1919 F       1  UNL1       -0.1659
     21 F         141.3164  139.0387  170.2958 F       1  UNL1       -0.1659
     22 F         139.3369  141.2909  170.2001 F       1  UNL1       -0.1659
     23 C         140.0233  142.6921  161.2329 C.ar    1  UNL1        0.0479
     24 C         140.8156  143.6035  160.3432 C.ar    1  UNL1        0.0027
     25 C         140.3970  143.8102  158.9177 C.ar    1  UNL1        0.0103
     26 C         139.1860  143.1056  158.3821 C.ar    1  UNL1        0.0728
     27 C         138.3937  142.1943  159.2718 C.ar    1  UNL1        0.0619
     28 C         138.8123  141.9875  160.6973 C.ar    1  UNL1        0.1792
     29 S         138.0200  141.0761  161.5870 S.O     1  UNL1        0.0579
     30 C         138.3573  139.6162  161.6563 C.3     1  UNL1        0.3254
     31 O         137.1793  141.3514  162.2298 O.co2   1  UNL1       -0.6774
     32 C         138.7673  143.3124  156.9566 C.1     1  UNL1        0.1006
     33 N         138.3487  143.5193  155.5311 N.1     1  UNL1       -0.1908
@<TRIPOS>UNITY_ATOM_ATTR
29 1
charge 1
31 1
charge -1
@<TRIPOS>BOND
     1     1     2    1
     2     2     3   am
     3     3     4    2
     4     3     5   am
     5     5    13    1
     6    13    14   ar
     7    14    15   ar
     8    15    16   ar
     9    16    17   ar
    10    17    19    1
    11    19    20    1
    12    19    21    1
    13    19    22    1
    14    17    18   ar
    15     5     6    1
    16     6     7    2
    17     7     8    1
    18     8     9    2
    19     8    10    1
    20    10    11    1
    21     7    12    1
    22    12    23    1
    23    23    24   ar
    24    24    25   ar
    25    25    26   ar
    26    26    32    1
    27    32    33    3
    28    26    27   ar
    29    27    28   ar
    30    28    29    1
    31    29    30    1
    32    29    31    2
    33    12     2    1
    34    28    23   ar
    35    18    13   ar
    36    11     6    1
@<TRIPOS>MOLECULE
*****
 33 36 0 0 0
SMALL
GASTEIGER

@<TRIPOS>ATOM
      1 C         141.1310  140.1294  161.9620 C.3     1  UNL1        0.1171
      2 N         140.7650  140.8992  162.6471 N.am    1  UNL1       -0.2556
      3 C         140.9945  140.5571  164.0894 C.2     1  UNL1        0.3150
      4 O         141.6659  139.2670  164.4566 O.2     1  UNL1       -0.2516
      5 N         140.5526  141.5051  165.1645 N.am    1  UNL1       -0.2256
      6 C         139.8812  142.7952  164.7974 C.2     1  UNL1        0.0380
      7 C         139.6516  143.1373  163.3551 C.2     1  UNL1        0.0448
      8 C         138.9694  144.4719  163.2981 C.2     1  UNL1        0.1723
      9 O         138.5525  145.1966  162.0527 O.2     1  UNL1       -0.2916
     10 C         138.7773  144.9547  164.7052 C.3     1  UNL1        0.0749
     11 C         139.3408  143.9184  165.6318 C.3     1  UNL1        0.0498
     12 C         140.0935  142.1893  162.2799 C.3     1  UNL1        0.1298
     13 C         140.7821  141.1630  166.6069 C.ar    1  UNL1        0.0592
     14 C         139.7761  140.3356  167.3507 C.ar    1  UNL1        0.0153
     15 C         140.0057  139.9936  168.7931 C.ar    1  UNL1        0.0012
     16 C         141.2413  140.4788  169.4915 C.ar    1  UNL1        0.0039
     17 C         142.2473  141.3062  168.7476 C.ar    1  UNL1        0.0727
     18 C         142.0178  141.6483  167.3054 C.ar    1  UNL1        0.0191
     19 C         143.4829  141.7915  169.4460 C.3     1  UNL1        0.4186
     20 F         144.7185  142.2768  170.1445 F       1  UNL1       -0.1659
     21 F         143.2385  140.8141  170.5573 F       1  UNL1       -0.1659
     22 F         143.7272  142.7689  168.3348 F       1  UNL1       -0.1659
     23 C         139.8640  142.5313  160.8375 C.ar    1  UNL1        0.0479
     24 C         138.5968  142.1043  160.1580 C.ar    1  UNL1        0.0027
     25 C         138.3672  142.4462  158.7156 C.ar    1  UNL1        0.0103
     26 C         139.4049  143.2153  157.9529 C.ar    1  UNL1        0.0728
     27 C         140.6721  143.6424  158.6325 C.ar    1  UNL1        0.0619
     28 C         140.9017  143.3004  160.0748 C.ar    1  UNL1        0.1792
     29 S         142.1689  143.7275  160.7544 S.O     1  UNL1        0.0579
     30 C         143.3799  142.8437  160.7068 C.3     1  UNL1        0.3254
     31 O         142.3366  144.6525  161.3128 O.co2   1  UNL1       -0.6774
     32 C         139.1753  143.5573  156.5106 C.1     1  UNL1        0.1006
     33 N         138.9458  143.8993  155.0682 N.1     1  UNL1       -0.1908
@<TRIPOS>UNITY_ATOM_ATTR
29 1
charge 1
31 1
charge -1
@<TRIPOS>BOND
     1     1     2    1
     2     2     3   am
     3     3     4    2
     4     3     5   am
     5     5    13    1
     6    13    14   ar
     7    14    15   ar
     8    15    16   ar
     9    16    17   ar
    10    17    19    1
    11    19    20    1
    12    19    21    1
    13    19    22    1
    14    17    18   ar
    15     5     6    1
    16     6     7    2
    17     7     8    1
    18     8     9    2
    19     8    10    1
    20    10    11    1
    21     7    12    1
    22    12    23    1
    23    23    24   ar
    24    24    25   ar
    25    25    26   ar
    26    26    32    1
    27    32    33    3
    28    26    27   ar
    29    27    28   ar
    30    28    29    1
    31    29    30    1
    32    29    31    2
    33    12     2    1
    34    28    23   ar
    35    18    13   ar
    36    11     6    1
@<TRIPOS>MOLECULE
*****
 33 36 0 0 0
SMALL
GASTEIGER

@<TRIPOS>ATOM
      1 C         141.4994  140.0623  162.6965 C.3     1  UNL1        0.1171
      2 N         141.0525  140.8414  163.3203 N.am    1  UNL1       -0.2556
      3 C         141.2765  140.6185  164.7866 C.2     1  UNL1        0.3150
      4 O         142.0476  139.4196  165.2538 O.2     1  UNL1       -0.2516
      5 N         140.7295  141.5944  165.7857 N.am    1  UNL1       -0.2256
      6 C         139.9585  142.7933  165.3186 C.2     1  UNL1        0.0380
      7 C         139.7345  143.0162  163.8522 C.2     1  UNL1        0.0448
      8 C         138.9415  144.2793  163.6912 C.2     1  UNL1        0.1723
      9 O         138.4933  144.8793  162.3915 O.2     1  UNL1       -0.2916
     10 C         138.6755  144.8369  165.0580 C.3     1  UNL1        0.0749
     11 C         139.3040  143.9185  166.0638 C.3     1  UNL1        0.0498
     12 C         140.2815  142.0403  162.8531 C.3     1  UNL1        0.1298
     13 C         140.9536  141.3714  167.2521 C.ar    1  UNL1        0.0592
     14 C         140.2156  140.2778  167.9657 C.ar    1  UNL1        0.0153
     15 C         140.4397  140.0549  169.4321 C.ar    1  UNL1        0.0012
     16 C         141.4017  140.9256  170.1848 C.ar    1  UNL1        0.0039
     17 C         142.1396  142.0193  169.4710 C.ar    1  UNL1        0.0727
     18 C         141.9156  142.2422  168.0047 C.ar    1  UNL1        0.0191
     19 C         143.1015  142.8900  170.2236 C.3     1  UNL1        0.4186
     20 F         144.0635  143.7607  170.9763 F       1  UNL1       -0.1659
     21 F         144.1630  141.8397  170.0820 F       1  UNL1       -0.1659
     22 F         142.0400  143.9403  170.3652 F       1  UNL1       -0.1659
     23 C         140.0575  142.2632  161.3867 C.ar    1  UNL1        0.0479
     24 C         141.0576  143.0426  160.5853 C.ar    1  UNL1        0.0027
     25 C         140.8337  143.2656  159.1189 C.ar    1  UNL1        0.0103
     26 C         139.6097  142.7090  158.4541 C.ar    1  UNL1        0.0728
     27 C         138.6096  141.9295  159.2555 C.ar    1  UNL1        0.0619
     28 C         138.8335  141.7066  160.7218 C.ar    1  UNL1        0.1792
     29 S         137.8335  140.9271  161.5233 S.O     1  UNL1        0.0579
     30 C         137.8355  139.4281  161.4715 C.3     1  UNL1        0.3254
     31 O         137.0572  141.3309  162.1790 O.co2   1  UNL1       -0.6774
     32 C         139.3858  142.9319  156.9877 C.1     1  UNL1        0.1006
     33 N         139.1620  143.1549  155.5213 N.1     1  UNL1       -0.1908
@<TRIPOS>UNITY_ATOM_ATTR
29 1
charge 1
31 1
charge -1
@<TRIPOS>BOND
     1     1     2    1
     2     2     3   am
     3     3     4    2
     4     3     5   am
     5     5    13    1
     6    13    14   ar
     7    14    15   ar
     8    15    16   ar
     9    16    17   ar
    10    17    19    1
    11    19    20    1
    12    19    21    1
    13    19    22    1
    14    17    18   ar
    15     5     6    1
    16     6     7    2
    17     7     8    1
    18     8     9    2
    19     8    10    1
    20    10    11    1
    21     7    12    1
    22    12    23    1
    23    23    24   ar
    24    24    25   ar
    25    25    26   ar
    26    26    32    1
    27    32    33    3
    28    26    27   ar
    29    27    28   ar
    30    28    29    1
    31    29    30    1
    32    29    31    2
    33    12     2    1
    34    28    23   ar
    35    18    13   ar
    36    11     6    1
@<TRIPOS>MOLECULE
*****
 33 36 0 0 0
SMALL
GASTEIGER

@<TRIPOS>ATOM
      1 C         143.4201  142.7091  162.5427 C.3     1  UNL1        0.1171
      2 N         142.5697  142.3380  163.1214 N.am    1  UNL1       -0.2556
      3 C         142.9322  141.9799  164.5320 C.2     1  UNL1        0.3150
      4 O         144.3444  142.1480  165.0093 O.2     1  UNL1       -0.2516
      5 N         141.8828  141.4536  165.4656 N.am    1  UNL1       -0.2256
      6 C         140.4707  141.2854  164.9885 C.2     1  UNL1        0.0380
      7 C         140.1081  141.6436  163.5777 C.2     1  UNL1        0.0448
      8 C         138.6444  141.3730  163.3923 C.2     1  UNL1        0.1723
      9 O         137.8603  141.5898  162.1320 O.2     1  UNL1       -0.2916
     10 C         138.1024  140.8476  164.6885 C.3     1  UNL1        0.0749
     11 C         139.2311  140.7934  165.6750 C.3     1  UNL1        0.0498
     12 C         141.1575  142.1699  162.6441 C.3     1  UNL1        0.1298
     13 C         142.2454  141.0954  166.8764 C.ar    1  UNL1        0.0592
     14 C         142.2373  139.6599  167.3115 C.ar    1  UNL1        0.0153
     15 C         142.5999  139.3018  168.7223 C.ar    1  UNL1        0.0012
     16 C         142.9707  140.3791  169.6979 C.ar    1  UNL1        0.0039
     17 C         142.9788  141.8146  169.2628 C.ar    1  UNL1        0.0727
     18 C         142.6162  142.1727  167.8521 C.ar    1  UNL1        0.0191
     19 C         143.3496  142.8919  170.2384 C.3     1  UNL1        0.4186
     20 F         143.7203  143.9692  171.2141 F       1  UNL1       -0.1659
     21 F         144.7942  142.5080  170.1134 F       1  UNL1       -0.1659
     22 F         141.9049  143.2758  170.3635 F       1  UNL1       -0.1659
     23 C         140.7950  142.5282  161.2333 C.ar    1  UNL1        0.0479
     24 C         140.8928  141.4965  160.1489 C.ar    1  UNL1        0.0027
     25 C         140.5303  141.8546  158.7381 C.ar    1  UNL1        0.0103
     26 C         140.0700  143.2444  158.4118 C.ar    1  UNL1        0.0728
     27 C         139.9721  144.2761  159.4963 C.ar    1  UNL1        0.0619
     28 C         140.3346  143.9180  160.9071 C.ar    1  UNL1        0.1792
     29 S         140.2368  144.9496  161.9916 S.O     1  UNL1        0.0579
     30 C         138.9493  145.1321  162.7391 C.3     1  UNL1        0.3254
     31 O         141.0266  145.6263  162.3293 O.co2   1  UNL1       -0.6774
     32 C         139.7074  143.6026  157.0010 C.1     1  UNL1        0.1006
     33 N         139.3450  143.9607  155.5902 N.1     1  UNL1       -0.1908
@<TRIPOS>UNITY_ATOM_ATTR
29 1
charge 1
31 1
charge -1
@<TRIPOS>BOND
     1     1     2    1
     2     2     3   am
     3     3     4    2
     4     3     5   am
     5     5    13    1
     6    13    14   ar
     7    14    15   ar
     8    15    16   ar
     9    16    17   ar
    10    17    19    1
    11    19    20    1
    12    19    21    1
    13    19    22    1
    14    17    18   ar
    15     5     6    1
    16     6     7    2
    17     7     8    1
    18     8     9    2
    19     8    10    1
    20    10    11    1
    21     7    12    1
    22    12    23    1
    23    23    24   ar
    24    24    25   ar
    25    25    26   ar
    26    26    32    1
    27    32    33    3
    28    26    27   ar
    29    27    28   ar
    30    28    29    1
    31    29    30    1
    32    29    31    2
    33    12     2    1
    34    28    23   ar
    35    18    13   ar
    36    11     6    1
@<TRIPOS>MOLECULE
*****
 33 36 0 0 0
SMALL
GASTEIGER

@<TRIPOS>ATOM
      1 C         143.5238  143.1256  162.1004 C.3     1  UNL1        0.1171
      2 N         142.6334  142.8931  162.6911 N.am    1  UNL1       -0.2556
      3 C         142.9577  142.3631  164.0563 C.2     1  UNL1        0.3150
      4 O         144.3882  142.2033  164.4785 O.2     1  UNL1       -0.2516
      5 N         141.8516  141.9928  164.9993 N.am    1  UNL1       -0.2256
      6 C         140.4211  142.1526  164.5772 C.2     1  UNL1        0.0380
      7 C         140.0968  142.6827  163.2119 C.2     1  UNL1        0.0448
      8 C         138.6037  142.7309  163.0760 C.2     1  UNL1        0.1723
      9 O         137.8427  143.1974  161.8705 O.2     1  UNL1       -0.2916
     10 C         138.0053  142.2307  164.3573 C.3     1  UNL1        0.0749
     11 C         139.1285  141.8733  165.2851 C.3     1  UNL1        0.0498
     12 C         141.2029  143.0529  162.2689 C.3     1  UNL1        0.1298
     13 C         142.1760  141.4628  166.3646 C.ar    1  UNL1        0.0592
     14 C         142.1658  139.9843  166.6170 C.ar    1  UNL1        0.0153
     15 C         142.4901  139.4543  167.9823 C.ar    1  UNL1        0.0012
     16 C         142.8247  140.4028  169.0951 C.ar    1  UNL1        0.0039
     17 C         142.8349  141.8815  168.8426 C.ar    1  UNL1        0.0727
     18 C         142.5105  142.4114  167.4774 C.ar    1  UNL1        0.0191
     19 C         143.1694  142.8300  169.9554 C.3     1  UNL1        0.4186
     20 F         143.5039  143.7785  171.0682 F       1  UNL1       -0.1659
     21 F         141.7611  143.3460  169.9389 F       1  UNL1       -0.1659
     22 F         144.5777  142.3140  169.9719 F       1  UNL1       -0.1659
     23 C         140.8786  143.5829  160.9036 C.ar    1  UNL1        0.0479
     24 C         140.7123  145.0586  160.6920 C.ar    1  UNL1        0.0027
     25 C         140.3881  145.5887  159.3268 C.ar    1  UNL1        0.0103
     26 C         140.2301  144.6431  158.1732 C.ar    1  UNL1        0.0728
     27 C         140.3964  143.1675  158.3847 C.ar    1  UNL1        0.0619
     28 C         140.7207  142.6374  159.7500 C.ar    1  UNL1        0.1792
     29 S         140.8870  141.1617  159.9615 S.O     1  UNL1        0.0579
     30 C         139.6933  140.3102  160.2778 C.3     1  UNL1        0.3254
     31 O         141.8182  140.5907  159.9128 O.co2   1  UNL1       -0.6774
     32 C         139.9059  145.1733  156.8080 C.1     1  UNL1        0.1006
     33 N         139.5816  145.7033  155.4427 N.1     1  UNL1       -0.1908
@<TRIPOS>UNITY_ATOM_ATTR
29 1
charge 1
31 1
charge -1
@<TRIPOS>BOND
     1     1     2    1
     2     2     3   am
     3     3     4    2
     4     3     5   am
     5     5    13    1
     6    13    14   ar
     7    14    15   ar
     8    15    16   ar
     9    16    17   ar
    10    17    19    1
    11    19    20    1
    12    19    21    1
    13    19    22    1
    14    17    18   ar
    15     5     6    1
    16     6     7    2
    17     7     8    1
    18     8     9    2
    19     8    10    1
    20    10    11    1
    21     7    12    1
    22    12    23    1
    23    23    24   ar
    24    24    25   ar
    25    25    26   ar
    26    26    32    1
    27    32    33    3
    28    26    27   ar
    29    27    28   ar
    30    28    29    1
    31    29    30    1
    32    29    31    2
    33    12     2    1
    34    28    23   ar
    35    18    13   ar
    36    11     6    1
@<TRIPOS>MOLECULE
*****
 33 36 0 0 0
SMALL
GASTEIGER

@<TRIPOS>ATOM
      1 C         141.8949  142.0690  162.3898 C.3     1  UNL1        0.1171
      2 N         141.3550  141.4382  163.1015 N.am    1  UNL1       -0.2556
      3 C         141.5410  141.8701  164.5258 C.2     1  UNL1        0.3150
      4 O         142.3991  143.0588  164.8432 O.2     1  UNL1       -0.2516
      5 N         140.8689  141.1133  165.6328 N.am    1  UNL1       -0.2256
      6 C         140.0108  139.9246  165.3155 C.2     1  UNL1        0.0380
      7 C         139.8249  139.4927  163.8911 C.2     1  UNL1        0.0448
      8 C         138.9272  138.2909  163.8845 C.2     1  UNL1        0.1723
      9 O         138.4773  137.5331  162.6707 O.2     1  UNL1       -0.2916
     10 C         138.5584  137.9801  165.3049 C.3     1  UNL1        0.0749
     11 C         139.2281  138.9898  166.1893 C.3     1  UNL1        0.0498
     12 C         140.4969  140.2494  162.7841 C.3     1  UNL1        0.1298
     13 C         141.0549  141.5452  167.0572 C.ar    1  UNL1        0.0592
     14 C         140.4034  142.8030  167.5507 C.ar    1  UNL1        0.0153
     15 C         140.5894  143.2348  168.9752 C.ar    1  UNL1        0.0012
     16 C         141.4269  142.4089  169.9061 C.ar    1  UNL1        0.0039
     17 C         142.0784  141.1511  169.4125 C.ar    1  UNL1        0.0727
     18 C         141.8924  140.7193  167.9882 C.ar    1  UNL1        0.0191
     19 C         142.9159  140.3253  170.3434 C.3     1  UNL1        0.4186
     20 F         143.7533  139.4994  171.2743 F       1  UNL1       -0.1659
     21 F         141.8270  139.2957  170.4095 F       1  UNL1       -0.1659
     22 F         144.0047  141.3548  170.2772 F       1  UNL1       -0.1659
     23 C         140.3110  139.8176  161.3596 C.ar    1  UNL1        0.0479
     24 C         141.3054  138.8947  160.7199 C.ar    1  UNL1        0.0027
     25 C         141.1196  138.4628  159.2955 C.ar    1  UNL1        0.0103
     26 C         139.9393  138.9539  158.5109 C.ar    1  UNL1        0.0728
     27 C         138.9448  139.8768  159.1506 C.ar    1  UNL1        0.0619
     28 C         139.1307  140.3087  160.5750 C.ar    1  UNL1        0.1792
     29 S         138.1363  141.2316  161.2147 S.O     1  UNL1        0.0579
     30 C         138.3178  142.7171  161.1124 C.3     1  UNL1        0.3254
     31 O         137.2437  140.9482  161.7793 O.co2   1  UNL1       -0.6774
     32 C         139.7534  138.5220  157.0865 C.1     1  UNL1        0.1006
     33 N         139.5675  138.0900  155.6621 N.1     1  UNL1       -0.1908
@<TRIPOS>UNITY_ATOM_ATTR
29 1
charge 1
31 1
charge -1
@<TRIPOS>BOND
     1     1     2    1
     2     2     3   am
     3     3     4    2
     4     3     5   am
     5     5    13    1
     6    13    14   ar
     7    14    15   ar
     8    15    16   ar
     9    16    17   ar
    10    17    19    1
    11    19    20    1
    12    19    21    1
    13    19    22    1
    14    17    18   ar
    15     5     6    1
    16     6     7    2
    17     7     8    1
    18     8     9    2
    19     8    10    1
    20    10    11    1
    21     7    12    1
    22    12    23    1
    23    23    24   ar
    24    24    25   ar
    25    25    26   ar
    26    26    32    1
    27    32    33    3
    28    26    27   ar
    29    27    28   ar
    30    28    29    1
    31    29    30    1
    32    29    31    2
    33    12     2    1
    34    28    23   ar
    35    18    13   ar
    36    11     6    1
@<TRIPOS>MOLECULE
*****
 33 36 0 0 0
SMALL
GASTEIGER

@<TRIPOS>ATOM
      1 C         140.0286  143.2006  162.5365 C.3     1  UNL1        0.1171
      2 N         140.3489  142.3371  163.1261 N.am    1  UNL1       -0.2556
      3 C         140.7545  142.6998  164.5239 C.2     1  UNL1        0.3150
      4 O         140.6931  144.1288  164.9758 O.2     1  UNL1       -0.2516
      5 N         141.2216  141.6335  165.4699 N.am    1  UNL1       -0.2256
      6 C         141.2830  140.2045  165.0181 C.2     1  UNL1        0.0380
      7 C         140.8774  139.8418  163.6202 C.2     1  UNL1        0.0448
      8 C         141.0423  138.3595  163.4596 C.2     1  UNL1        0.1723
      9 O         140.7508  137.5694  162.2183 O.2     1  UNL1       -0.2916
     10 C         141.5497  137.8062  164.7581 C.3     1  UNL1        0.0749
     11 C         141.6985  138.9464  165.7213 C.3     1  UNL1        0.0498
     12 C         140.4104  140.9080  162.6742 C.3     1  UNL1        0.1298
     13 C         141.6271  141.9962  166.8677 C.ar    1  UNL1        0.0592
     14 C         143.0761  141.9831  167.2556 C.ar    1  UNL1        0.0153
     15 C         143.4816  142.3458  168.6534 C.ar    1  UNL1        0.0012
     16 C         142.4382  142.7217  169.6634 C.ar    1  UNL1        0.0039
     17 C         140.9893  142.7349  169.2755 C.ar    1  UNL1        0.0727
     18 C         140.5837  142.3722  167.8778 C.ar    1  UNL1        0.0191
     19 C         139.9459  143.1108  170.2855 C.3     1  UNL1        0.4186
     20 F         138.9026  143.4867  171.2955 F       1  UNL1       -0.1659
     21 F         140.2997  144.5582  170.1123 F       1  UNL1       -0.1659
     22 F         139.5922  141.6635  170.4588 F       1  UNL1       -0.1659
     23 C         140.0048  140.5454  161.2763 C.ar    1  UNL1        0.0479
     24 C         138.5713  140.2271  160.9701 C.ar    1  UNL1        0.0027
     25 C         138.1656  139.8645  159.5723 C.ar    1  UNL1        0.0103
     26 C         139.1934  139.8201  158.4808 C.ar    1  UNL1        0.0728
     27 C         140.6269  140.1383  158.7870 C.ar    1  UNL1        0.0619
     28 C         141.0326  140.5010  160.1848 C.ar    1  UNL1        0.1792
     29 S         142.4661  140.8192  160.4910 S.O     1  UNL1        0.0579
     30 C         143.4479  139.7091  160.7226 C.3     1  UNL1        0.3254
     31 O         142.9169  141.8122  160.5726 O.co2   1  UNL1       -0.6774
     32 C         138.7877  139.4574  157.0829 C.1     1  UNL1        0.1006
     33 N         138.3819  139.0948  155.6851 N.1     1  UNL1       -0.1908
@<TRIPOS>UNITY_ATOM_ATTR
29 1
charge 1
31 1
charge -1
@<TRIPOS>BOND
     1     1     2    1
     2     2     3   am
     3     3     4    2
     4     3     5   am
     5     5    13    1
     6    13    14   ar
     7    14    15   ar
     8    15    16   ar
     9    16    17   ar
    10    17    19    1
    11    19    20    1
    12    19    21    1
    13    19    22    1
    14    17    18   ar
    15     5     6    1
    16     6     7    2
    17     7     8    1
    18     8     9    2
    19     8    10    1
    20    10    11    1
    21     7    12    1
    22    12    23    1
    23    23    24   ar
    24    24    25   ar
    25    25    26   ar
    26    26    32    1
    27    32    33    3
    28    26    27   ar
    29    27    28   ar
    30    28    29    1
    31    29    30    1
    32    29    31    2
    33    12     2    1
    34    28    23   ar
    35    18    13   ar
    36    11     6    1
@<TRIPOS>MOLECULE
*****
 33 36 0 0 0
SMALL
GASTEIGER

@<TRIPOS>ATOM
      1 C         139.6606  142.5719  162.9544 C.3     1  UNL1        0.1171
      2 N         140.7089  142.3808  163.2000 N.am    1  UNL1       -0.2556
      3 C         140.9096  141.9606  164.6258 C.2     1  UNL1        0.3150
      4 O         139.7308  141.8426  165.5460 O.2     1  UNL1       -0.2516
      5 N         142.2890  141.6583  165.1316 N.am    1  UNL1       -0.2256
      6 C         143.4678  141.7762  164.2115 C.2     1  UNL1        0.0380
      7 C         143.2671  142.1964  162.7856 C.2     1  UNL1        0.0448
      8 C         144.6098  142.2251  162.1174 C.2     1  UNL1        0.1723
      9 O         144.8753  142.5919  160.6874 O.2     1  UNL1       -0.2916
     10 C         145.6402  141.8225  163.1304 C.3     1  UNL1        0.0749
     11 C         144.9345  141.5451  164.4246 C.3     1  UNL1        0.0498
     12 C         141.8877  142.4988  162.2798 C.3     1  UNL1        0.1298
     13 C         142.4897  141.2380  166.5575 C.ar    1  UNL1        0.0592
     14 C         142.3795  139.7906  166.9354 C.ar    1  UNL1        0.0153
     15 C         142.5802  139.3704  168.3613 C.ar    1  UNL1        0.0012
     16 C         142.8910  140.3976  169.4093 C.ar    1  UNL1        0.0039
     17 C         143.0011  141.8451  169.0313 C.ar    1  UNL1        0.0727
     18 C         142.8005  142.2653  167.6055 C.ar    1  UNL1        0.0191
     19 C         143.3119  142.8723  170.0793 C.3     1  UNL1        0.4186
     20 F         143.6227  143.8995  171.1273 F       1  UNL1       -0.1659
     21 F         141.8720  143.2924  170.0945 F       1  UNL1       -0.1659
     22 F         144.7518  142.4521  170.0641 F       1  UNL1       -0.1659
     23 C         141.6870  142.9190  160.8539 C.ar    1  UNL1        0.0479
     24 C         141.6823  144.3754  160.4949 C.ar    1  UNL1        0.0027
     25 C         141.4816  144.7957  159.0690 C.ar    1  UNL1        0.0103
     26 C         141.2855  143.7596  158.0023 C.ar    1  UNL1        0.0728
     27 C         141.2902  142.3032  158.3613 C.ar    1  UNL1        0.0619
     28 C         141.4909  141.8829  159.7871 C.ar    1  UNL1        0.1792
     29 S         141.4956  140.4265  160.1461 S.O     1  UNL1        0.0579
     30 C         140.2079  139.7309  160.4747 C.3     1  UNL1        0.3254
     31 O         142.3649  139.7656  160.2035 O.co2   1  UNL1       -0.6774
     32 C         141.0848  144.1800  156.5764 C.1     1  UNL1        0.1006
     33 N         140.8840  144.6004  155.1506 N.1     1  UNL1       -0.1908
@<TRIPOS>UNITY_ATOM_ATTR
29 1
charge 1
31 1
charge -1
@<TRIPOS>BOND
     1     1     2    1
     2     2     3   am
     3     3     4    2
     4     3     5   am
     5     5    13    1
     6    13    14   ar
     7    14    15   ar
     8    15    16   ar
     9    16    17   ar
    10    17    19    1
    11    19    20    1
    12    19    21    1
    13    19    22    1
    14    17    18   ar
    15     5     6    1
    16     6     7    2
    17     7     8    1
    18     8     9    2
    19     8    10    1
    20    10    11    1
    21     7    12    1
    22    12    23    1
    23    23    24   ar
    24    24    25   ar
    25    25    26   ar
    26    26    32    1
    27    32    33    3
    28    26    27   ar
    29    27    28   ar
    30    28    29    1
    31    29    30    1
    32    29    31    2
    33    12     2    1
    34    28    23   ar
    35    18    13   ar
    36    11     6    1
