@<TRIPOS>MOLECULE
*****
 32 34 0 0 0
SMALL
GASTEIGER

@<TRIPOS>ATOM
      1 N         141.4046  137.4185  162.3140 N.3     1  UNL1       -0.2935
      2 H         141.5982  136.6090  161.7244 H       1  UNL1        0.1236
      3 C         142.5467  138.3730  162.1276 C.3     1  UNL1        0.0736
      4 C         142.2782  139.7976  161.7421 C.3     1  UNL1        0.0444
      5 C         142.8061  141.6473  163.5981 C.2     1  UNL1        0.0540
      6 N         141.9770  142.4934  164.5182 N.2     1  UNL1       -0.2503
      7 C         140.5337  142.1635  164.2767 C.2     1  UNL1        0.0770
      8 C         139.2687  142.6836  164.8924 C.2     1  UNL1        0.0184
      9 C         137.9408  142.1536  164.4388 C.2     1  UNL1       -0.0027
     10 C         137.8780  141.1036  163.3694 C.2     1  UNL1       -0.0213
     11 C         139.1431  140.5835  162.7537 C.3     1  UNL1        0.0535
     12 C         140.4709  141.1135  163.2074 C.2     1  UNL1       -0.0030
     13 C         141.8753  140.7945  162.7880 C.2     1  UNL1       -0.0095
     14 C         144.2351  142.7490  162.4826 C.3     1  UNL1        0.0059
     15 C         144.3032  141.6531  163.5045 C.3     1  UNL1        0.0352
     16 C         144.3713  140.5571  164.5264 C.3     1  UNL1        0.0059
     17 C         145.8003  141.6588  163.4109 C.3     1  UNL1        0.0059
     18 C         141.0832  136.8915  163.6811 C.3     1  UNL1        0.0956
     19 C         140.7187  137.8405  164.7840 C.ar    1  UNL1       -0.0064
     20 C         141.7958  138.5533  165.5467 C.ar    1  UNL1       -0.0029
     21 C         141.4312  139.5024  166.6497 C.ar    1  UNL1       -0.0003
     22 C         139.9896  139.7386  166.9900 C.ar    1  UNL1        0.0001
     23 C         138.9124  139.0258  166.2273 C.ar    1  UNL1       -0.0003
     24 C         139.2769  138.0767  165.1243 C.ar    1  UNL1       -0.0029
     25 C         139.6250  140.6876  168.0929 C.2     1  UNL1        0.0047
     26 C         140.6572  141.6232  168.6488 C.2     1  UNL1        0.0598
     27 C         140.2928  142.5723  169.7518 C.2     1  UNL1        0.2679
     28 O         140.0906  142.0589  171.1466 O.2     1  UNL1       -0.2681
     29 N         140.1306  144.0347  169.4600 N.am    1  UNL1       -0.1934
     30 O         139.7661  144.9836  170.5630 O.3     1  UNL1       -0.2949
     31 H         140.2633  144.3716  168.5445 H       1  UNL1        0.1825
     32 H         139.6735  144.4927  171.3945 H       1  UNL1        0.2414
@<TRIPOS>BOND
     1    14    15    1
     2    15    16    1
     3    15    17    1
     4    15     5    1
     5     5     6    2
     6     6     7    1
     7     7     8    2
     8     8     9    1
     9     9    10    2
    10    10    11    1
    11    11    12    1
    12    12    13    2
    13    13     4    1
    14     4     3    1
    15     3     1    1
    16     1    18    1
    17    18    19    1
    18    19    20   ar
    19    20    21   ar
    20    21    22   ar
    21    22    25    1
    22    25    26    2
    23    26    27    1
    24    27    28    2
    25    27    29   am
    26    29    30    1
    27    22    23   ar
    28    23    24   ar
    29    13     5    1
    30    24    19   ar
    31    12     7    1
    32     1     2    1
    33    29    31    1
    34    30    32    1
@<TRIPOS>MOLECULE
*****
 32 34 0 0 0
SMALL
GASTEIGER

@<TRIPOS>ATOM
      1 N         141.7838  137.1669  162.6031 N.3     1  UNL1       -0.2935
      2 H         142.7243  137.4966  162.8202 H       1  UNL1        0.1236
      3 C         141.2904  137.9924  161.4520 C.3     1  UNL1        0.0736
      4 C         141.7768  139.4005  161.2759 C.3     1  UNL1        0.0444
      5 C         140.0267  141.0252  162.4771 C.2     1  UNL1        0.0540
      6 N         140.1070  142.0466  163.5726 N.2     1  UNL1       -0.2503
      7 C         141.5288  142.1075  164.0465 C.2     1  UNL1        0.0770
      8 C         142.1995  142.9316  165.1052 C.2     1  UNL1        0.0184
      9 C         143.6689  142.7719  165.3612 C.2     1  UNL1       -0.0027
     10 C         144.4674  141.7881  164.5585 C.2     1  UNL1       -0.0213
     11 C         143.7967  140.9639  163.4998 C.3     1  UNL1        0.0535
     12 C         142.3274  141.1236  163.2438 C.2     1  UNL1       -0.0030
     13 C         141.3991  140.4547  162.2739 C.2     1  UNL1       -0.0095
     14 C         139.1703  141.5915  160.6208 C.3     1  UNL1        0.0059
     15 C         138.7912  140.6415  161.7180 C.3     1  UNL1        0.0352
     16 C         138.4121  139.6916  162.8152 C.3     1  UNL1        0.0059
     17 C         137.5556  140.2579  160.9589 C.3     1  UNL1        0.0059
     18 C         141.0219  137.1503  163.8951 C.3     1  UNL1        0.0956
     19 C         141.4291  138.0582  165.0176 C.ar    1  UNL1       -0.0064
     20 C         142.8496  138.0646  165.4992 C.ar    1  UNL1       -0.0029
     21 C         143.2568  138.9725  166.6218 C.ar    1  UNL1       -0.0003
     22 C         142.2435  139.8739  167.2626 C.ar    1  UNL1        0.0001
     23 C         140.8229  139.8674  166.7809 C.ar    1  UNL1       -0.0003
     24 C         140.4157  138.9596  165.6584 C.ar    1  UNL1       -0.0029
     25 C         142.6507  140.7817  168.3851 C.2     1  UNL1        0.0047
     26 C         141.6148  141.3230  169.3253 C.2     1  UNL1        0.0598
     27 C         142.0220  142.2308  170.4478 C.2     1  UNL1        0.2679
     28 O         141.3075  142.1617  171.7649 O.2     1  UNL1       -0.2681
     29 N         143.1435  143.2077  170.2533 N.am    1  UNL1       -0.1934
     30 O         143.5505  144.1155  171.3759 O.3     1  UNL1       -0.2949
     31 H         143.6124  143.2531  169.3888 H       1  UNL1        0.1825
     32 H         142.9920  143.9430  172.1500 H       1  UNL1        0.2414
@<TRIPOS>BOND
     1    14    15    1
     2    15    16    1
     3    15    17    1
     4    15     5    1
     5     5     6    2
     6     6     7    1
     7     7     8    2
     8     8     9    1
     9     9    10    2
    10    10    11    1
    11    11    12    1
    12    12    13    2
    13    13     4    1
    14     4     3    1
    15     3     1    1
    16     1    18    1
    17    18    19    1
    18    19    20   ar
    19    20    21   ar
    20    21    22   ar
    21    22    25    1
    22    25    26    2
    23    26    27    1
    24    27    28    2
    25    27    29   am
    26    29    30    1
    27    22    23   ar
    28    23    24   ar
    29    13     5    1
    30    24    19   ar
    31    12     7    1
    32     1     2    1
    33    29    31    1
    34    30    32    1
@<TRIPOS>MOLECULE
*****
 32 34 0 0 0
SMALL
GASTEIGER

@<TRIPOS>ATOM
      1 N         139.0051  140.4666  160.7330 N.3     1  UNL1       -0.2935
      2 H         138.5781  140.4821  159.8068 H       1  UNL1        0.1236
      3 C         140.4887  140.5491  160.5274 C.3     1  UNL1        0.0736
      4 C         141.2706  141.6695  161.1466 C.3     1  UNL1        0.0444
      5 C         141.0301  143.0199  163.4409 C.2     1  UNL1        0.0540
      6 N         141.2460  142.6964  164.8896 N.2     1  UNL1       -0.2503
      7 C         141.6996  141.2697  164.9834 C.2     1  UNL1        0.0770
      8 C         142.0622  140.4069  166.1556 C.2     1  UNL1        0.0184
      9 C         142.4893  138.9857  165.9370 C.2     1  UNL1       -0.0027
     10 C         142.5538  138.4274  164.5462 C.2     1  UNL1       -0.0213
     11 C         142.1911  139.2902  163.3741 C.3     1  UNL1        0.0535
     12 C         141.7640  140.7114  163.5927 C.2     1  UNL1       -0.0030
     13 C         141.3502  141.7931  162.6394 C.2     1  UNL1       -0.0095
     14 C         141.9977  144.8080  162.8356 C.3     1  UNL1        0.0059
     15 C         140.5741  144.3386  162.8903 C.3     1  UNL1        0.0352
     16 C         139.1505  143.8692  162.9451 C.3     1  UNL1        0.0059
     17 C         140.1181  145.6573  162.3398 C.3     1  UNL1        0.0059
     18 C         138.4131  139.2977  161.4632 C.3     1  UNL1        0.0956
     19 C         138.4498  139.2532  162.9621 C.ar    1  UNL1       -0.0064
     20 C         138.1172  140.4808  163.7573 C.ar    1  UNL1       -0.0029
     21 C         138.1539  140.4362  165.2562 C.ar    1  UNL1       -0.0003
     22 C         138.5231  139.1640  165.9599 C.ar    1  UNL1        0.0001
     23 C         138.8557  137.9364  165.1648 C.ar    1  UNL1       -0.0003
     24 C         138.8190  137.9809  163.6659 C.ar    1  UNL1       -0.0029
     25 C         138.5598  139.1195  167.4588 C.2     1  UNL1        0.0047
     26 C         139.2514  140.2080  168.2247 C.2     1  UNL1        0.0598
     27 C         139.2881  140.1636  169.7237 C.2     1  UNL1        0.2679
     28 O         138.0443  139.8347  170.4949 O.2     1  UNL1       -0.2681
     29 N         140.5686  140.4480  170.4514 N.am    1  UNL1       -0.1934
     30 O         140.6052  140.4035  171.9503 O.3     1  UNL1       -0.2949
     31 H         141.3850  140.6638  169.9452 H       1  UNL1        0.1825
     32 H         139.7245  140.1780  172.2887 H       1  UNL1        0.2414
@<TRIPOS>BOND
     1    14    15    1
     2    15    16    1
     3    15    17    1
     4    15     5    1
     5     5     6    2
     6     6     7    1
     7     7     8    2
     8     8     9    1
     9     9    10    2
    10    10    11    1
    11    11    12    1
    12    12    13    2
    13    13     4    1
    14     4     3    1
    15     3     1    1
    16     1    18    1
    17    18    19    1
    18    19    20   ar
    19    20    21   ar
    20    21    22   ar
    21    22    25    1
    22    25    26    2
    23    26    27    1
    24    27    28    2
    25    27    29   am
    26    29    30    1
    27    22    23   ar
    28    23    24   ar
    29    13     5    1
    30    24    19   ar
    31    12     7    1
    32     1     2    1
    33    29    31    1
    34    30    32    1
@<TRIPOS>MOLECULE
*****
 32 34 0 0 0
SMALL
GASTEIGER

@<TRIPOS>ATOM
      1 N         138.3854  142.1300  162.0741 N.3     1  UNL1       -0.2935
      2 H         138.5776  141.1877  161.7342 H       1  UNL1        0.1236
      3 C         139.6817  142.8827  162.0198 C.3     1  UNL1        0.0736
      4 C         140.9606  142.1540  161.7307 C.3     1  UNL1        0.0444
      5 C         142.8413  142.2264  163.6288 C.2     1  UNL1        0.0540
      6 N         143.3520  141.2572  164.6534 N.2     1  UNL1       -0.2503
      7 C         142.5761  139.9813  164.5118 C.2     1  UNL1        0.0770
      8 C         142.6434  138.6783  165.2519 C.2     1  UNL1        0.0184
      9 C         141.7204  137.5560  164.8799 C.2     1  UNL1       -0.0027
     10 C         140.7302  137.7366  163.7678 C.2     1  UNL1       -0.0213
     11 C         140.6629  139.0396  163.0277 C.3     1  UNL1        0.0535
     12 C         141.5859  140.1619  163.3998 C.2     1  UNL1       -0.0030
     13 C         141.7498  141.5495  162.8540 C.2     1  UNL1       -0.0095
     14 C         142.2528  144.1451  164.3159 C.3     1  UNL1        0.0059
     15 C         143.3353  143.6267  163.4164 C.3     1  UNL1        0.0352
     16 C         144.4179  143.1082  162.5168 C.3     1  UNL1        0.0059
     17 C         143.8294  145.0270  163.2039 C.3     1  UNL1        0.0059
     18 C         137.6591  141.9804  163.3779 C.3     1  UNL1        0.0956
     19 C         138.3993  141.5255  164.6007 C.ar    1  UNL1       -0.0064
     20 C         139.3506  142.4571  165.2915 C.ar    1  UNL1       -0.0029
     21 C         140.0908  142.0021  166.5143 C.ar    1  UNL1       -0.0003
     22 C         139.8797  140.6156  167.0463 C.ar    1  UNL1        0.0001
     23 C         138.9284  139.6840  166.3556 C.ar    1  UNL1       -0.0003
     24 C         138.1882  140.1389  165.1328 C.ar    1  UNL1       -0.0029
     25 C         140.6199  140.1607  168.2691 C.2     1  UNL1        0.0047
     26 C         141.2474  141.1697  169.1845 C.2     1  UNL1        0.0598
     27 C         141.9876  140.7149  170.4073 C.2     1  UNL1        0.2679
     28 O         141.4737  141.0710  171.7708 O.2     1  UNL1       -0.2681
     29 N         143.2417  139.9041  170.2667 N.am    1  UNL1       -0.1934
     30 O         143.9819  139.4493  171.4896 O.3     1  UNL1       -0.2949
     31 H         143.5791  139.6704  169.3718 H       1  UNL1        0.1825
     32 H         143.5191  139.7620  172.2826 H       1  UNL1        0.2414
@<TRIPOS>BOND
     1    14    15    1
     2    15    16    1
     3    15    17    1
     4    15     5    1
     5     5     6    2
     6     6     7    1
     7     7     8    2
     8     8     9    1
     9     9    10    2
    10    10    11    1
    11    11    12    1
    12    12    13    2
    13    13     4    1
    14     4     3    1
    15     3     1    1
    16     1    18    1
    17    18    19    1
    18    19    20   ar
    19    20    21   ar
    20    21    22   ar
    21    22    25    1
    22    25    26    2
    23    26    27    1
    24    27    28    2
    25    27    29   am
    26    29    30    1
    27    22    23   ar
    28    23    24   ar
    29    13     5    1
    30    24    19   ar
    31    12     7    1
    32     1     2    1
    33    29    31    1
    34    30    32    1
@<TRIPOS>MOLECULE
*****
 32 34 0 0 0
SMALL
GASTEIGER

@<TRIPOS>ATOM
      1 N         144.4037  139.3960  162.5788 N.3     1  UNL1       -0.2935
      2 H         145.1932  139.1244  161.9929 H       1  UNL1        0.1236
      3 C         143.6391  140.4390  161.8188 C.3     1  UNL1        0.0736
      4 C         142.1593  140.2903  161.6232 C.3     1  UNL1        0.0444
      5 C         140.7929  142.2431  162.8334 C.2     1  UNL1        0.0540
      6 N         139.8355  142.3107  163.9861 N.2     1  UNL1       -0.2503
      7 C         139.6603  140.9219  164.5251 C.2     1  UNL1        0.0770
      8 C         138.8372  140.3807  165.6564 C.2     1  UNL1        0.0184
      9 C         138.8634  138.9138  165.9680 C.2     1  UNL1       -0.0027
     10 C         139.7126  137.9879  165.1485 C.2     1  UNL1       -0.0213
     11 C         140.5356  138.5290  164.0173 C.3     1  UNL1        0.0535
     12 C         140.5095  139.9960  163.7056 C.2     1  UNL1       -0.0030
     13 C         141.2095  140.8126  162.6601 C.2     1  UNL1       -0.0095
     14 C         140.1909  143.0957  160.9865 C.3     1  UNL1        0.0059
     15 C         141.2530  143.4026  162.0003 C.3     1  UNL1        0.0352
     16 C         142.3152  143.7095  163.0140 C.3     1  UNL1        0.0059
     17 C         141.7132  144.5620  161.1672 C.3     1  UNL1        0.0059
     18 C         144.9601  139.7137  163.9351 C.3     1  UNL1        0.0956
     19 C         144.0331  139.9244  165.0954 C.ar    1  UNL1       -0.0064
     20 C         143.6189  138.7600  165.9455 C.ar    1  UNL1       -0.0029
     21 C         142.6919  138.9709  167.1058 C.ar    1  UNL1       -0.0003
     22 C         142.1791  140.3459  167.4160 C.ar    1  UNL1        0.0001
     23 C         142.5934  141.5103  166.5659 C.ar    1  UNL1       -0.0003
     24 C         143.5204  141.2996  165.4056 C.ar    1  UNL1       -0.0029
     25 C         141.2522  140.5567  168.5763 C.2     1  UNL1        0.0047
     26 C         140.6011  141.8920  168.7831 C.2     1  UNL1        0.0598
     27 C         139.6741  142.1029  169.9434 C.2     1  UNL1        0.2679
     28 O         138.7775  140.9899  170.3988 O.2     1  UNL1       -0.2681
     29 N         139.6437  143.4265  170.6483 N.am    1  UNL1       -0.1934
     30 O         138.7166  143.6373  171.8086 O.3     1  UNL1       -0.2949
     31 H         140.2321  144.1570  170.3494 H       1  UNL1        0.1825
     32 H         138.2119  142.8250  171.9709 H       1  UNL1        0.2414
@<TRIPOS>BOND
     1    14    15    1
     2    15    16    1
     3    15    17    1
     4    15     5    1
     5     5     6    2
     6     6     7    1
     7     7     8    2
     8     8     9    1
     9     9    10    2
    10    10    11    1
    11    11    12    1
    12    12    13    2
    13    13     4    1
    14     4     3    1
    15     3     1    1
    16     1    18    1
    17    18    19    1
    18    19    20   ar
    19    20    21   ar
    20    21    22   ar
    21    22    25    1
    22    25    26    2
    23    26    27    1
    24    27    28    2
    25    27    29   am
    26    29    30    1
    27    22    23   ar
    28    23    24   ar
    29    13     5    1
    30    24    19   ar
    31    12     7    1
    32     1     2    1
    33    29    31    1
    34    30    32    1
@<TRIPOS>MOLECULE
*****
 32 34 0 0 0
SMALL
GASTEIGER

@<TRIPOS>ATOM
      1 N         142.9885  140.0583  168.4847 N.3     1  UNL1       -0.2935
      2 H         143.9912  139.9849  168.3125 H       1  UNL1        0.1236
      3 C         142.3146  139.1243  167.5237 C.3     1  UNL1        0.0736
      4 C         143.0475  138.6433  166.3064 C.3     1  UNL1        0.0444
      5 C         141.4539  139.0644  164.2021 C.2     1  UNL1        0.0540
      6 N         141.5777  139.8201  162.9123 N.2     1  UNL1       -0.2503
      7 C         142.9364  140.4546  162.8754 C.2     1  UNL1        0.0770
      8 C         143.6142  141.3165  161.8518 C.2     1  UNL1        0.0184
      9 C         145.0079  141.8148  162.0952 C.2     1  UNL1       -0.0027
     10 C         145.7238  141.4512  163.3622 C.2     1  UNL1       -0.0213
     11 C         145.0461  140.5893  164.3857 C.3     1  UNL1        0.0535
     12 C         143.6524  140.0910  164.1424 C.2     1  UNL1       -0.0030
     13 C         142.7362  139.2318  164.9623 C.2     1  UNL1       -0.0095
     14 C         140.9295  137.0090  164.2214 C.3     1  UNL1        0.0059
     15 C         140.2580  138.2791  164.6526 C.3     1  UNL1        0.0352
     16 C         139.5864  139.5492  165.0837 C.3     1  UNL1        0.0059
     17 C         139.0620  137.4938  165.1030 C.3     1  UNL1        0.0059
     18 C         142.6525  141.5200  168.4702 C.3     1  UNL1        0.0956
     19 C         142.5449  142.2518  167.1652 C.ar    1  UNL1       -0.0064
     20 C         141.2286  142.3186  166.4491 C.ar    1  UNL1       -0.0029
     21 C         141.1211  143.0505  165.1441 C.ar    1  UNL1       -0.0003
     22 C         142.3299  143.7155  164.5553 C.ar    1  UNL1        0.0001
     23 C         143.6462  143.6487  165.2715 C.ar    1  UNL1       -0.0003
     24 C         143.7537  142.9169  166.5764 C.ar    1  UNL1       -0.0029
     25 C         142.2223  144.4473  163.2504 C.2     1  UNL1        0.0047
     26 C         140.8943  144.5629  162.5626 C.2     1  UNL1        0.0598
     27 C         140.7866  145.2947  161.2577 C.2     1  UNL1        0.2679
     28 O         139.5536  146.0886  160.9426 O.2     1  UNL1       -0.2681
     29 N         141.9119  145.2326  160.2678 N.am    1  UNL1       -0.1934
     30 O         141.8041  145.9644  158.9629 O.3     1  UNL1       -0.2949
     31 H         142.7212  144.7115  160.4746 H       1  UNL1        0.1825
     32 H         140.9508  146.4235  158.9191 H       1  UNL1        0.2414
@<TRIPOS>BOND
     1    14    15    1
     2    15    16    1
     3    15    17    1
     4    15     5    1
     5     5     6    2
     6     6     7    1
     7     7     8    2
     8     8     9    1
     9     9    10    2
    10    10    11    1
    11    11    12    1
    12    12    13    2
    13    13     4    1
    14     4     3    1
    15     3     1    1
    16     1    18    1
    17    18    19    1
    18    19    20   ar
    19    20    21   ar
    20    21    22   ar
    21    22    25    1
    22    25    26    2
    23    26    27    1
    24    27    28    2
    25    27    29   am
    26    29    30    1
    27    22    23   ar
    28    23    24   ar
    29    13     5    1
    30    24    19   ar
    31    12     7    1
    32     1     2    1
    33    29    31    1
    34    30    32    1
@<TRIPOS>MOLECULE
*****
 32 34 0 0 0
SMALL
GASTEIGER

@<TRIPOS>ATOM
      1 N         138.4356  138.0987  162.7333 N.3     1  UNL1       -0.2935
      2 H         137.6886  137.5187  162.3513 H       1  UNL1        0.1236
      3 C         139.4534  138.2667  161.6444 C.3     1  UNL1        0.0736
      4 C         139.9207  139.6392  161.2597 C.3     1  UNL1        0.0444
      5 C         142.2153  140.4872  162.3371 C.2     1  UNL1        0.0540
      6 N         142.5829  141.4397  163.4360 N.2     1  UNL1       -0.2503
      7 C         141.3142  141.9999  164.0075 C.2     1  UNL1        0.0770
      8 C         141.0589  142.9838  165.1106 C.2     1  UNL1        0.0184
      9 C         139.6519  143.3613  165.4680 C.2     1  UNL1       -0.0027
     10 C         138.5002  142.7550  164.7223 C.2     1  UNL1       -0.0213
     11 C         138.7556  141.7712  163.6193 C.3     1  UNL1        0.0535
     12 C         140.1626  141.3936  163.2619 C.2     1  UNL1       -0.0030
     13 C         140.7195  140.4587  162.2295 C.2     1  UNL1       -0.0095
     14 C         143.1986  140.8115  160.4856 C.3     1  UNL1        0.0059
     15 C         143.1751  139.7012  161.4938 C.3     1  UNL1        0.0352
     16 C         143.1516  138.5909  162.5021 C.3     1  UNL1        0.0059
     17 C         144.1349  138.9152  160.6506 C.3     1  UNL1        0.0059
     18 C         138.8331  137.4854  164.0432 C.3     1  UNL1        0.0956
     19 C         139.4776  138.3302  165.1020 C.ar    1  UNL1       -0.0064
     20 C         138.6278  139.1430  166.0332 C.ar    1  UNL1       -0.0029
     21 C         139.2724  139.9879  167.0919 C.ar    1  UNL1       -0.0003
     22 C         140.7666  140.0198  167.2195 C.ar    1  UNL1        0.0001
     23 C         141.6164  139.2070  166.2882 C.ar    1  UNL1       -0.0003
     24 C         140.9719  138.3622  165.2295 C.ar    1  UNL1       -0.0029
     25 C         141.4111  140.8646  168.2782 C.2     1  UNL1        0.0047
     26 C         140.5885  141.4055  169.4099 C.2     1  UNL1        0.0598
     27 C         141.2329  142.2503  170.4687 C.2     1  UNL1        0.2679
     28 O         140.7096  142.2196  171.8741 O.2     1  UNL1       -0.2681
     29 N         142.4005  143.1258  170.1221 N.am    1  UNL1       -0.1934
     30 O         143.0449  143.9706  171.1810 O.3     1  UNL1       -0.2949
     31 H         142.7440  143.1459  169.1997 H       1  UNL1        0.1825
     32 H         142.5885  143.8337  172.0259 H       1  UNL1        0.2414
@<TRIPOS>BOND
     1    14    15    1
     2    15    16    1
     3    15    17    1
     4    15     5    1
     5     5     6    2
     6     6     7    1
     7     7     8    2
     8     8     9    1
     9     9    10    2
    10    10    11    1
    11    11    12    1
    12    12    13    2
    13    13     4    1
    14     4     3    1
    15     3     1    1
    16     1    18    1
    17    18    19    1
    18    19    20   ar
    19    20    21   ar
    20    21    22   ar
    21    22    25    1
    22    25    26    2
    23    26    27    1
    24    27    28    2
    25    27    29   am
    26    29    30    1
    27    22    23   ar
    28    23    24   ar
    29    13     5    1
    30    24    19   ar
    31    12     7    1
    32     1     2    1
    33    29    31    1
    34    30    32    1
@<TRIPOS>MOLECULE
*****
 32 34 0 0 0
SMALL
GASTEIGER

@<TRIPOS>ATOM
      1 N         145.0314  142.3574  162.1829 N.3     1  UNL1       -0.2935
      2 H         144.4509  143.1548  162.4429 H       1  UNL1        0.1236
      3 C         144.2244  141.5269  161.2295 C.3     1  UNL1        0.0736
      4 C         142.7364  141.7019  161.1565 C.3     1  UNL1        0.0444
      5 C         141.6219  139.3740  161.8521 C.2     1  UNL1        0.0540
      6 N         140.6493  138.9370  162.9071 N.2     1  UNL1       -0.2503
      7 C         140.2647  140.1434  163.7114 C.2     1  UNL1        0.0770
      8 C         139.3403  140.3178  164.8796 C.2     1  UNL1        0.0184
      9 C         139.1509  141.6748  165.4900 C.2     1  UNL1       -0.0027
     10 C         139.8859  142.8574  164.9321 C.2     1  UNL1       -0.0213
     11 C         140.8104  142.6830  163.7638 C.3     1  UNL1        0.0535
     12 C         140.9998  141.3259  163.1535 C.2     1  UNL1       -0.0030
     13 C         141.8386  140.8504  162.0044 C.2     1  UNL1       -0.0095
     14 C         141.2373  138.9123  159.8177 C.3     1  UNL1        0.0059
     15 C         142.2651  138.4898  160.8252 C.3     1  UNL1        0.0352
     16 C         143.2929  138.0672  161.8327 C.3     1  UNL1        0.0059
     17 C         142.9082  137.6056  159.7983 C.3     1  UNL1        0.0059
     18 C         145.5364  141.7547  163.4603 C.3     1  UNL1        0.0956
     19 C         144.5683  141.3447  164.5302 C.ar    1  UNL1       -0.0064
     20 C         144.2106  139.8984  164.7037 C.ar    1  UNL1       -0.0029
     21 C         143.2425  139.4884  165.7737 C.ar    1  UNL1       -0.0003
     22 C         142.6321  140.5248  166.6700 C.ar    1  UNL1        0.0001
     23 C         142.9898  141.9711  166.4965 C.ar    1  UNL1       -0.0003
     24 C         143.9579  142.3811  165.4266 C.ar    1  UNL1       -0.0029
     25 C         141.6640  140.1147  167.7400 C.2     1  UNL1        0.0047
     26 C         141.3340  141.0616  168.8555 C.2     1  UNL1        0.0598
     27 C         140.3659  140.6516  169.9255 C.2     1  UNL1        0.2679
     28 O         139.2033  141.5369  170.2642 O.2     1  UNL1       -0.2681
     29 N         140.5603  139.3565  170.6567 N.am    1  UNL1       -0.1934
     30 O         139.5922  138.9466  171.7267 O.3     1  UNL1       -0.2949
     31 H         141.3233  138.7754  170.4345 H       1  UNL1        0.1825
     32 H         138.9058  139.6258  171.8191 H       1  UNL1        0.2414
@<TRIPOS>BOND
     1    14    15    1
     2    15    16    1
     3    15    17    1
     4    15     5    1
     5     5     6    2
     6     6     7    1
     7     7     8    2
     8     8     9    1
     9     9    10    2
    10    10    11    1
    11    11    12    1
    12    12    13    2
    13    13     4    1
    14     4     3    1
    15     3     1    1
    16     1    18    1
    17    18    19    1
    18    19    20   ar
    19    20    21   ar
    20    21    22   ar
    21    22    25    1
    22    25    26    2
    23    26    27    1
    24    27    28    2
    25    27    29   am
    26    29    30    1
    27    22    23   ar
    28    23    24   ar
    29    13     5    1
    30    24    19   ar
    31    12     7    1
    32     1     2    1
    33    29    31    1
    34    30    32    1
@<TRIPOS>MOLECULE
*****
 32 34 0 0 0
SMALL
GASTEIGER

@<TRIPOS>ATOM
      1 N         139.0108  138.8447  161.2740 N.3     1  UNL1       -0.2935
      2 H         138.8612  138.2648  160.4483 H       1  UNL1        0.1236
      3 C         140.1767  139.7382  160.9703 C.3     1  UNL1        0.0736
      4 C         140.1074  141.2000  161.2999 C.3     1  UNL1        0.0444
      5 C         140.3681  142.8029  163.4231 C.2     1  UNL1        0.0540
      6 N         141.4305  143.0282  164.4578 N.2     1  UNL1       -0.2503
      7 C         142.5722  142.1024  164.1592 C.2     1  UNL1        0.0770
      8 C         143.8906  141.8825  164.8400 C.2     1  UNL1        0.0184
      9 C         144.8522  140.8651  164.3016 C.2     1  UNL1       -0.0027
     10 C         144.4955  140.0675  163.0823 C.2     1  UNL1       -0.0213
     11 C         143.1772  140.2874  162.4014 C.3     1  UNL1        0.0535
     12 C         142.2155  141.3048  162.9399 C.2     1  UNL1       -0.0030
     13 C         140.8533  141.7378  162.4850 C.2     1  UNL1       -0.0095
     14 C         139.6697  144.5536  162.4497 C.3     1  UNL1        0.0059
     15 C         139.0517  143.5173  163.3409 C.3     1  UNL1        0.0352
     16 C         138.4337  142.4810  164.2320 C.3     1  UNL1        0.0059
     17 C         137.7353  144.2317  163.2587 C.3     1  UNL1        0.0059
     18 C         139.0639  137.9166  162.4512 C.3     1  UNL1        0.0956
     19 C         139.9479  138.2375  163.6198 C.ar    1  UNL1       -0.0064
     20 C         139.5134  139.2564  164.6313 C.ar    1  UNL1       -0.0029
     21 C         140.3975  139.5772  165.8000 C.ar    1  UNL1       -0.0003
     22 C         141.7158  138.8791  165.9571 C.ar    1  UNL1        0.0001
     23 C         142.1502  137.8603  164.9456 C.ar    1  UNL1       -0.0003
     24 C         141.2663  137.5394  163.7769 C.ar    1  UNL1       -0.0029
     25 C         142.5997  139.2000  167.1258 C.2     1  UNL1        0.0047
     26 C         142.0152  139.8203  168.3601 C.2     1  UNL1        0.0598
     27 C         142.8991  140.1412  169.5288 C.2     1  UNL1        0.2679
     28 O         143.4563  141.5245  169.6901 O.2     1  UNL1       -0.2681
     29 N         143.2258  139.0789  170.5361 N.am    1  UNL1       -0.1934
     30 O         144.1096  139.3999  171.7048 O.3     1  UNL1       -0.2949
     31 H         142.8600  138.1710  170.4303 H       1  UNL1        0.1825
     32 H         144.3813  140.3299  171.6589 H       1  UNL1        0.2414
@<TRIPOS>BOND
     1    14    15    1
     2    15    16    1
     3    15    17    1
     4    15     5    1
     5     5     6    2
     6     6     7    1
     7     7     8    2
     8     8     9    1
     9     9    10    2
    10    10    11    1
    11    11    12    1
    12    12    13    2
    13    13     4    1
    14     4     3    1
    15     3     1    1
    16     1    18    1
    17    18    19    1
    18    19    20   ar
    19    20    21   ar
    20    21    22   ar
    21    22    25    1
    22    25    26    2
    23    26    27    1
    24    27    28    2
    25    27    29   am
    26    29    30    1
    27    22    23   ar
    28    23    24   ar
    29    13     5    1
    30    24    19   ar
    31    12     7    1
    32     1     2    1
    33    29    31    1
    34    30    32    1
