@<TRIPOS>MOLECULE
*****
 39 45 0 0 0
SMALL
GASTEIGER

@<TRIPOS>ATOM
      1 C         137.7353  139.5189  162.0047 C.3     1  UNL1        0.0700
      2 C         138.4087  138.2457  162.4238 C.3     1  UNL1        0.0193
      3 C         138.9993  138.1265  163.7974 C.3     1  UNL1        0.0287
      4 C         138.9165  139.2806  164.7521 C.3     1  UNL1        0.0955
      5 C         138.2432  140.5538  164.3331 C.3     1  UNL1        0.0287
      6 C         137.6525  140.6729  162.9594 C.3     1  UNL1        0.0193
      7 O         138.5783  139.3930  164.0099 O.3     1  UNL1       -0.3571
      8 C         138.0442  139.5008  162.7679 C.3     1  UNL1        0.1562
      9 N         137.1447  139.6380  160.6311 N.3     1  UNL1       -0.2926
     10 H         136.9143  138.6922  160.3265 H       1  UNL1        0.1236
     11 C         137.9389  140.2676  159.5253 C.3     1  UNL1        0.1152
     12 C         139.2757  136.8475  155.5546 C.3     1  UNL1        0.1138
     13 N         140.5496  137.1568  156.2838 N.pl3   1  UNL1       -0.2854
     14 C         141.8392  136.5338  155.8380 C.3     1  UNL1        0.1397
     15 C         143.1130  136.8430  156.5670 C.3     1  UNL1        0.2269
     16 O         143.0973  137.7754  157.7420 O.3     1  UNL1       -0.4708
     17 C         141.8077  138.3984  158.1878 C.ar    1  UNL1        0.1700
     18 C         141.7920  139.3308  159.3628 C.ar    1  UNL1        0.0411
     19 C         140.5023  139.9538  159.8086 C.ar    1  UNL1        0.0193
     20 C         139.2285  139.6445  159.0794 C.ar    1  UNL1        0.0765
     21 N         139.2443  138.7122  157.9045 N.ar    1  UNL1       -0.2306
     22 C         140.5339  138.0891  157.4587 C.ar    1  UNL1        0.1658
     23 C         139.5072  139.1615  166.1258 C.3     1  UNL1        0.0604
     24 C         140.6439  140.0513  166.5332 C.3     1  UNL1        0.1335
     25 O         141.1533  139.7692  165.1509 O.3     1  UNL1       -0.3806
     26 C         141.8871  140.8822  166.6517 C.3     1  UNL1        0.1402
     27 N         141.9084  141.4919  168.0221 N.ar    1  UNL1       -0.2915
     28 C         142.8889  142.4018  168.7007 C.ar    1  UNL1        0.2611
     29 O         144.1190  142.8559  167.9722 O.2     1  UNL1       -0.2670
     30 C         142.6394  142.8576  170.1077 C.ar    1  UNL1        0.0623
     31 C         141.4093  142.4035  170.8362 C.ar    1  UNL1        0.0254
     32 C         140.4288  141.4936  170.1576 C.ar    1  UNL1        0.0972
     33 N         139.1336  140.8895  170.6352 N.ar    1  UNL1       -0.2400
     34 C         138.2478  139.9844  169.8314 C.ar    1  UNL1        0.1282
     35 C         138.6294  139.6134  168.4290 C.ar    1  UNL1        0.1588
     36 F         137.7435  138.7084  167.6252 F       1  UNL1       -0.2027
     37 C         139.8968  140.1475  167.8304 C.ar    1  UNL1        0.0500
     38 C         140.6783  141.0378  168.7506 C.ar    1  UNL1        0.0806
     39 H         141.9927  140.2358  165.0141 H       1  UNL1        0.2108
@<TRIPOS>BOND
     1    12    13    1
     2    13    14    1
     3    14    15    1
     4    15    16    1
     5    16    17    1
     6    17    18   ar
     7    18    19   ar
     8    19    20   ar
     9    20    11    1
    10    11     9    1
    11     9     1    1
    12     1     2    1
    13     2     3    1
    14     3     4    1
    15     4    23    1
    16    23    24    1
    17    24    25    1
    18    24    26    1
    19    26    27    1
    20    27    28   ar
    21    28    29    2
    22    28    30   ar
    23    30    31   ar
    24    31    32   ar
    25    32    33   ar
    26    33    34   ar
    27    34    35   ar
    28    35    36    1
    29    35    37   ar
    30    37    38   ar
    31     4     5    1
    32     5     6    1
    33     4     7    1
    34     7     8    1
    35    20    21   ar
    36    21    22   ar
    37    22    13    1
    38    22    17   ar
    39     6     1    1
    40     8     1    1
    41    37    24    1
    42    38    27   ar
    43    38    32   ar
    44     9    10    1
    45    25    39    1
@<TRIPOS>MOLECULE
*****
 39 45 0 0 0
SMALL
GASTEIGER

@<TRIPOS>ATOM
      1 C         137.7518  139.5487  162.0183 C.3     1  UNL1        0.0700
      2 C         138.4871  138.2934  162.3836 C.3     1  UNL1        0.0193
      3 C         139.0952  138.1502  163.7473 C.3     1  UNL1        0.0287
      4 C         138.9679  139.2625  164.7458 C.3     1  UNL1        0.0955
      5 C         138.2327  140.5178  164.3804 C.3     1  UNL1        0.0287
      6 C         137.6246  140.6609  163.0167 C.3     1  UNL1        0.0193
      7 O         138.6181  139.3869  164.0109 O.3     1  UNL1       -0.3571
      8 C         138.0682  139.5163  162.7778 C.3     1  UNL1        0.1562
      9 N         137.1437  139.6918  160.6545 N.3     1  UNL1       -0.2926
     10 H         136.8833  138.7544  160.3484 H       1  UNL1        0.1236
     11 C         137.9378  140.3063  159.5401 C.3     1  UNL1        0.1152
     12 C         143.1514  139.2412  160.5063 C.3     1  UNL1        0.1138
     13 N         143.0070  140.7313  160.5995 N.pl3   1  UNL1       -0.2854
     14 C         144.2021  141.5827  160.9109 C.3     1  UNL1        0.1397
     15 C         144.0577  143.0727  161.0041 C.3     1  UNL1        0.2269
     16 O         142.7182  143.7116  160.7858 O.3     1  UNL1       -0.4708
     17 C         141.5231  142.8603  160.4744 C.ar    1  UNL1        0.1700
     18 C         140.1836  143.4990  160.2562 C.ar    1  UNL1        0.0411
     19 C         138.9885  142.6477  159.9447 C.ar    1  UNL1        0.0193
     20 C         139.1329  141.1576  159.8516 C.ar    1  UNL1        0.0765
     21 N         140.4724  140.5188  160.0698 N.ar    1  UNL1       -0.2306
     22 C         141.6675  141.3702  160.3813 C.ar    1  UNL1        0.1658
     23 C         139.5760  139.1194  166.1095 C.3     1  UNL1        0.0604
     24 C         140.6958  140.0244  166.5301 C.3     1  UNL1        0.1335
     25 O         141.2368  139.7309  165.1622 O.3     1  UNL1       -0.3806
     26 C         141.9287  140.8681  166.6648 C.3     1  UNL1        0.1402
     27 N         141.9156  141.4938  168.0281 N.ar    1  UNL1       -0.2915
     28 C         142.8734  142.4206  168.7163 C.ar    1  UNL1        0.2611
     29 O         144.1144  142.8776  168.0084 O.2     1  UNL1       -0.2670
     30 C         142.5901  142.8904  170.1123 C.ar    1  UNL1        0.0623
     31 C         141.3491  142.4334  170.8201 C.ar    1  UNL1        0.0254
     32 C         140.3914  141.5066  170.1319 C.ar    1  UNL1        0.0972
     33 N         139.0919  140.8961  170.5893 N.ar    1  UNL1       -0.2400
     34 C         138.2314  139.9736  169.7779 C.ar    1  UNL1        0.1282
     35 C         138.6458  139.5899  168.3883 C.ar    1  UNL1        0.1588
     36 F         137.7853  138.6674  167.5769 F       1  UNL1       -0.2027
     37 C         139.9208  140.1287  167.8101 C.ar    1  UNL1        0.0500
     38 C         140.6746  141.0368  168.7359 C.ar    1  UNL1        0.0806
     39 H         142.0746  140.2037  165.0376 H       1  UNL1        0.2108
@<TRIPOS>BOND
     1    12    13    1
     2    13    14    1
     3    14    15    1
     4    15    16    1
     5    16    17    1
     6    17    18   ar
     7    18    19   ar
     8    19    20   ar
     9    20    11    1
    10    11     9    1
    11     9     1    1
    12     1     2    1
    13     2     3    1
    14     3     4    1
    15     4    23    1
    16    23    24    1
    17    24    25    1
    18    24    26    1
    19    26    27    1
    20    27    28   ar
    21    28    29    2
    22    28    30   ar
    23    30    31   ar
    24    31    32   ar
    25    32    33   ar
    26    33    34   ar
    27    34    35   ar
    28    35    36    1
    29    35    37   ar
    30    37    38   ar
    31     4     5    1
    32     5     6    1
    33     4     7    1
    34     7     8    1
    35    20    21   ar
    36    21    22   ar
    37    22    13    1
    38    22    17   ar
    39     6     1    1
    40     8     1    1
    41    37    24    1
    42    38    27   ar
    43    38    32   ar
    44     9    10    1
    45    25    39    1
@<TRIPOS>MOLECULE
*****
 39 45 0 0 0
SMALL
GASTEIGER

@<TRIPOS>ATOM
      1 C         142.1240  137.8396  157.9211 C.3     1  UNL1        0.0700
      2 C         140.7659  138.0022  157.3055 C.3     1  UNL1        0.0193
      3 C         139.6410  138.5801  158.1122 C.3     1  UNL1        0.0287
      4 C         139.8743  138.9955  159.5346 C.3     1  UNL1        0.0955
      5 C         141.2325  138.8329  160.1502 C.3     1  UNL1        0.0287
      6 C         142.3573  138.2550  159.3434 C.3     1  UNL1        0.0193
      7 O         140.5215  138.6838  159.1321 O.3     1  UNL1       -0.3571
      8 C         141.5386  138.1612  158.4027 C.3     1  UNL1        0.1562
      9 N         143.2488  137.2617  157.1144 N.3     1  UNL1       -0.2926
     10 H         143.8584  138.0389  156.8600 H       1  UNL1        0.1236
     11 C         142.9557  136.5094  155.8502 C.3     1  UNL1        0.1152
     12 C         145.6010  132.4001  158.1667 C.3     1  UNL1        0.1138
     13 N         144.4311  131.7916  157.4519 N.pl3   1  UNL1       -0.2854
     14 C         144.2149  130.3079  157.4949 C.3     1  UNL1        0.1397
     15 C         143.0451  129.6993  156.7802 C.3     1  UNL1        0.2269
     16 O         142.0912  130.5745  156.0223 O.3     1  UNL1       -0.4708
     17 C         142.3073  132.0582  155.9793 C.ar    1  UNL1        0.1700
     18 C         141.3536  132.9334  155.2215 C.ar    1  UNL1        0.0411
     19 C         141.5697  134.4172  155.1785 C.ar    1  UNL1        0.0193
     20 C         142.7396  135.0257  155.8933 C.ar    1  UNL1        0.0765
     21 N         143.6934  134.1505  156.6511 N.ar    1  UNL1       -0.2306
     22 C         143.4773  132.6667  156.6941 C.ar    1  UNL1        0.1658
     23 C         138.7495  139.5735  160.3413 C.3     1  UNL1        0.0604
     24 C         138.7354  141.0375  160.6673 C.3     1  UNL1        0.1335
     25 O         138.8835  141.2085  159.1844 O.3     1  UNL1       -0.3806
     26 C         138.7522  142.5374  160.6833 C.3     1  UNL1        0.1402
     27 N         138.6175  142.9873  162.1079 N.ar    1  UNL1       -0.2915
     28 C         138.5731  144.3516  162.7297 C.ar    1  UNL1        0.2611
     29 O         138.6732  145.5734  161.8652 O.2     1  UNL1       -0.2670
     30 C         138.4285  144.4941  164.2158 C.ar    1  UNL1        0.0623
     31 C         138.3284  143.2723  165.0802 C.ar    1  UNL1        0.0254
     32 C         138.3729  141.9080  164.4585 C.ar    1  UNL1        0.0972
     33 N         138.2960  140.5319  165.0673 N.ar    1  UNL1       -0.2400
     34 C         138.3550  139.2401  164.3071 C.ar    1  UNL1        0.1282
     35 C         138.5021  139.2545  162.8144 C.ar    1  UNL1        0.1588
     36 F         138.5611  137.9627  162.0542 F       1  UNL1       -0.2027
     37 C         138.5903  140.5605  162.0820 C.ar    1  UNL1        0.0500
     38 C         138.5174  141.7655  162.9723 C.ar    1  UNL1        0.0806
     39 H         138.9162  142.1539  158.9697 H       1  UNL1        0.2108
@<TRIPOS>BOND
     1    12    13    1
     2    13    14    1
     3    14    15    1
     4    15    16    1
     5    16    17    1
     6    17    18   ar
     7    18    19   ar
     8    19    20   ar
     9    20    11    1
    10    11     9    1
    11     9     1    1
    12     1     2    1
    13     2     3    1
    14     3     4    1
    15     4    23    1
    16    23    24    1
    17    24    25    1
    18    24    26    1
    19    26    27    1
    20    27    28   ar
    21    28    29    2
    22    28    30   ar
    23    30    31   ar
    24    31    32   ar
    25    32    33   ar
    26    33    34   ar
    27    34    35   ar
    28    35    36    1
    29    35    37   ar
    30    37    38   ar
    31     4     5    1
    32     5     6    1
    33     4     7    1
    34     7     8    1
    35    20    21   ar
    36    21    22   ar
    37    22    13    1
    38    22    17   ar
    39     6     1    1
    40     8     1    1
    41    37    24    1
    42    38    27   ar
    43    38    32   ar
    44     9    10    1
    45    25    39    1
@<TRIPOS>MOLECULE
*****
 39 45 0 0 0
SMALL
GASTEIGER

@<TRIPOS>ATOM
      1 C         144.4718  142.7667  161.7189 C.3     1  UNL1        0.0700
      2 C         144.2944  142.4523  160.2630 C.3     1  UNL1        0.0193
      3 C         143.1742  143.0835  159.4905 C.3     1  UNL1        0.0287
      4 C         142.2314  144.0292  160.1739 C.3     1  UNL1        0.0955
      5 C         142.4088  144.3437  161.6298 C.3     1  UNL1        0.0287
      6 C         143.5290  143.7124  162.4023 C.3     1  UNL1        0.0193
      7 O         142.8303  143.7079  160.6387 O.3     1  UNL1       -0.3571
      8 C         143.8431  143.1371  161.3372 C.3     1  UNL1        0.1562
      9 N         145.5919  142.1355  162.4915 N.3     1  UNL1       -0.2926
     10 H         146.2957  141.8509  161.8103 H       1  UNL1        0.1236
     11 C         145.3243  140.9433  163.3614 C.3     1  UNL1        0.1152
     12 C         140.2584  140.7332  165.2437 C.3     1  UNL1        0.1138
     13 N         140.3760  139.6239  164.2409 N.pl3   1  UNL1       -0.2854
     14 C         139.1977  138.7394  163.9593 C.3     1  UNL1        0.1397
     15 C         139.3152  137.6301  162.9566 C.3     1  UNL1        0.2269
     16 O         140.6111  137.4052  162.2353 O.3     1  UNL1       -0.4708
     17 C         141.7894  138.2898  162.5168 C.ar    1  UNL1        0.1700
     18 C         143.0852  138.0650  161.7956 C.ar    1  UNL1        0.0411
     19 C         144.2635  138.9495  162.0772 C.ar    1  UNL1        0.0193
     20 C         144.1459  140.0588  163.0799 C.ar    1  UNL1        0.0765
     21 N         142.8501  140.2836  163.8012 N.ar    1  UNL1       -0.2306
     22 C         141.6718  139.3991  163.5196 C.ar    1  UNL1        0.1658
     23 C         141.1113  144.6605  159.4013 C.3     1  UNL1        0.0604
     24 C         139.9935  143.8116  158.8722 C.3     1  UNL1        0.1335
     25 O         140.0016  143.2191  160.2502 O.3     1  UNL1       -0.3806
     26 C         138.8774  142.8389  158.6312 C.3     1  UNL1        0.1402
     27 N         138.4132  143.0076  157.2149 N.ar    1  UNL1       -0.2915
     28 C         137.3425  142.3197  156.4208 C.ar    1  UNL1        0.2611
     29 O         136.5133  141.2427  157.0551 O.2     1  UNL1       -0.2670
     30 C         137.1011  142.7089  154.9925 C.ar    1  UNL1        0.0623
     31 C         137.9303  143.7860  154.3582 C.ar    1  UNL1        0.0254
     32 C         139.0009  144.4739  155.1522 C.ar    1  UNL1        0.0972
     33 N         139.9682  145.5687  154.7831 N.ar    1  UNL1       -0.2400
     34 C         140.9975  146.1643  155.6972 C.ar    1  UNL1        0.1282
     35 C         141.1229  145.6708  157.1081 C.ar    1  UNL1        0.1588
     36 F         142.1522  146.2664  158.0223 F       1  UNL1       -0.2027
     37 C         140.2190  144.5816  157.6049 C.ar    1  UNL1        0.0500
     38 C         139.2424  144.0847  156.5805 C.ar    1  UNL1        0.0806
     39 H         139.3186  142.5330  160.3112 H       1  UNL1        0.2108
@<TRIPOS>BOND
     1    12    13    1
     2    13    14    1
     3    14    15    1
     4    15    16    1
     5    16    17    1
     6    17    18   ar
     7    18    19   ar
     8    19    20   ar
     9    20    11    1
    10    11     9    1
    11     9     1    1
    12     1     2    1
    13     2     3    1
    14     3     4    1
    15     4    23    1
    16    23    24    1
    17    24    25    1
    18    24    26    1
    19    26    27    1
    20    27    28   ar
    21    28    29    2
    22    28    30   ar
    23    30    31   ar
    24    31    32   ar
    25    32    33   ar
    26    33    34   ar
    27    34    35   ar
    28    35    36    1
    29    35    37   ar
    30    37    38   ar
    31     4     5    1
    32     5     6    1
    33     4     7    1
    34     7     8    1
    35    20    21   ar
    36    21    22   ar
    37    22    13    1
    38    22    17   ar
    39     6     1    1
    40     8     1    1
    41    37    24    1
    42    38    27   ar
    43    38    32   ar
    44     9    10    1
    45    25    39    1
@<TRIPOS>MOLECULE
*****
 39 45 0 0 0
SMALL
GASTEIGER

@<TRIPOS>ATOM
      1 C         137.7498  139.5005  161.3518 C.3     1  UNL1        0.0700
      2 C         138.4370  138.1877  161.5852 C.3     1  UNL1        0.0193
      3 C         139.2788  137.9893  162.8108 C.3     1  UNL1        0.0287
      4 C         139.4335  139.1037  163.8030 C.3     1  UNL1        0.0955
      5 C         138.7463  140.4164  163.5696 C.3     1  UNL1        0.0287
      6 C         137.9044  140.6148  162.3440 C.3     1  UNL1        0.0193
      7 O         138.9619  139.2595  163.1462 O.3     1  UNL1       -0.3571
      8 C         138.2007  139.4389  162.0381 C.3     1  UNL1        0.1562
      9 N         136.9079  139.6989  160.1263 N.3     1  UNL1       -0.2926
     10 H         136.5262  138.7856  159.8803 H       1  UNL1        0.1236
     11 C         137.5209  140.2624  158.8786 C.3     1  UNL1        0.1152
     12 C         142.7655  139.0210  158.4288 C.3     1  UNL1        0.1138
     13 N         142.7082  140.4974  158.6871 N.pl3   1  UNL1       -0.2854
     14 C         143.9763  141.2944  158.7684 C.3     1  UNL1        0.1397
     15 C         143.9190  142.7708  159.0268 C.3     1  UNL1        0.2269
     16 O         142.5935  143.4504  159.2039 O.3     1  UNL1       -0.4708
     17 C         141.3254  142.6534  159.1226 C.ar    1  UNL1        0.1700
     18 C         139.9999  143.3328  159.2996 C.ar    1  UNL1        0.0411
     19 C         138.7317  142.5358  159.2183 C.ar    1  UNL1        0.0193
     20 C         138.7891  141.0594  158.9599 C.ar    1  UNL1        0.0765
     21 N         140.1146  140.3799  158.7829 N.ar    1  UNL1       -0.2306
     22 C         141.3827  141.1769  158.8642 C.ar    1  UNL1        0.1658
     23 C         140.2753  138.9053  165.0285 C.3     1  UNL1        0.0604
     24 C         139.7858  139.3895  166.3611 C.3     1  UNL1        0.1335
     25 O         138.6596  138.4285  166.1202 O.3     1  UNL1       -0.3806
     26 C         139.0609  139.6729  167.6434 C.3     1  UNL1        0.1402
     27 N         139.8414  140.7077  168.3983 N.ar    1  UNL1       -0.2915
     28 C         139.6088  141.3717  169.7230 C.ar    1  UNL1        0.2611
     29 O         138.4014  141.0154  170.5387 O.2     1  UNL1       -0.2670
     30 C         140.5835  142.3919  170.2320 C.ar    1  UNL1        0.0623
     31 C         141.7908  142.7481  169.4163 C.ar    1  UNL1        0.0254
     32 C         142.0235  142.0841  168.0916 C.ar    1  UNL1        0.0972
     33 N         143.1270  142.2413  167.0776 N.ar    1  UNL1       -0.2400
     34 C         143.2266  141.4979  165.7787 C.ar    1  UNL1        0.1282
     35 C         142.1704  140.5019  165.4016 C.ar    1  UNL1        0.1588
     36 F         142.2700  139.7585  164.1026 F       1  UNL1       -0.2027
     37 C         141.0144  140.2493  166.3235 C.ar    1  UNL1        0.0500
     38 C         141.0488  141.0640  167.5825 C.ar    1  UNL1        0.0806
     39 H         138.0446  138.4567  166.8697 H       1  UNL1        0.2108
@<TRIPOS>BOND
     1    12    13    1
     2    13    14    1
     3    14    15    1
     4    15    16    1
     5    16    17    1
     6    17    18   ar
     7    18    19   ar
     8    19    20   ar
     9    20    11    1
    10    11     9    1
    11     9     1    1
    12     1     2    1
    13     2     3    1
    14     3     4    1
    15     4    23    1
    16    23    24    1
    17    24    25    1
    18    24    26    1
    19    26    27    1
    20    27    28   ar
    21    28    29    2
    22    28    30   ar
    23    30    31   ar
    24    31    32   ar
    25    32    33   ar
    26    33    34   ar
    27    34    35   ar
    28    35    36    1
    29    35    37   ar
    30    37    38   ar
    31     4     5    1
    32     5     6    1
    33     4     7    1
    34     7     8    1
    35    20    21   ar
    36    21    22   ar
    37    22    13    1
    38    22    17   ar
    39     6     1    1
    40     8     1    1
    41    37    24    1
    42    38    27   ar
    43    38    32   ar
    44     9    10    1
    45    25    39    1
@<TRIPOS>MOLECULE
*****
 39 45 0 0 0
SMALL
GASTEIGER

@<TRIPOS>ATOM
      1 C         142.4920  138.5096  160.0633 C.3     1  UNL1        0.0700
      2 C         141.9272  139.8969  159.9844 C.3     1  UNL1        0.0193
      3 C         141.1753  140.4680  161.1500 C.3     1  UNL1        0.0287
      4 C         140.9881  139.6516  162.3945 C.3     1  UNL1        0.0955
      5 C         141.5529  138.2642  162.4733 C.3     1  UNL1        0.0287
      6 C         142.3048  137.6932  161.3077 C.3     1  UNL1        0.0193
      7 O         141.4074  139.2960  161.7816 O.3     1  UNL1       -0.3571
      8 C         142.0873  138.7796  160.7277 C.3     1  UNL1        0.1562
      9 N         143.2439  137.9385  158.8978 N.3     1  UNL1       -0.2926
     10 H         144.1054  138.4777  158.8104 H       1  UNL1        0.1236
     11 C         142.6110  137.9103  157.5382 C.3     1  UNL1        0.1152
     12 C         144.7153  132.9490  157.9939 C.3     1  UNL1        0.1138
     13 N         143.6461  132.8528  156.9462 N.pl3   1  UNL1       -0.2854
     14 C         143.3703  131.5403  156.2744 C.3     1  UNL1        0.1397
     15 C         142.3012  131.4441  155.2267 C.3     1  UNL1        0.2269
     16 O         141.5077  132.6603  154.8508 O.3     1  UNL1       -0.4708
     17 C         141.7836  133.9728  155.5227 C.ar    1  UNL1        0.1700
     18 C         140.9902  135.1891  155.1469 C.ar    1  UNL1        0.0411
     19 C         141.2661  136.5015  155.8187 C.ar    1  UNL1        0.0193
     20 C         142.3352  136.5977  156.8664 C.ar    1  UNL1        0.0765
     21 N         143.1286  135.3814  157.2422 N.ar    1  UNL1       -0.2306
     22 C         142.8527  134.0690  156.5703 C.ar    1  UNL1        0.1658
     23 C         140.2362  140.2226  163.5600 C.3     1  UNL1        0.0604
     24 C         140.9837  140.8302  164.7098 C.3     1  UNL1        0.1335
     25 O         141.8612  141.3988  163.6343 O.3     1  UNL1       -0.3806
     26 C         141.9146  141.5567  165.6348 C.3     1  UNL1        0.1402
     27 N         141.4562  141.3101  167.0416 N.ar    1  UNL1       -0.2915
     28 C         141.9876  141.7723  168.3659 C.ar    1  UNL1        0.2611
     29 O         143.2019  142.6511  168.4215 O.2     1  UNL1       -0.2670
     30 C         141.3047  141.3556  169.6348 C.ar    1  UNL1        0.0623
     31 C         140.0904  140.4767  169.5792 C.ar    1  UNL1        0.0254
     32 C         139.5590  140.0145  168.2549 C.ar    1  UNL1        0.0972
     33 N         138.3808  139.1440  167.9022 N.ar    1  UNL1       -0.2400
     34 C         137.9669  138.7625  166.5118 C.ar    1  UNL1        0.1282
     35 C         138.7514  139.2579  165.3332 C.ar    1  UNL1        0.1588
     36 F         138.3374  138.8764  163.9429 F       1  UNL1       -0.2027
     37 C         139.9499  140.1347  165.5449 C.ar    1  UNL1        0.0500
     38 C         140.2419  140.4312  166.9861 C.ar    1  UNL1        0.0806
     39 H         142.5649  141.9303  164.0385 H       1  UNL1        0.2108
@<TRIPOS>BOND
     1    12    13    1
     2    13    14    1
     3    14    15    1
     4    15    16    1
     5    16    17    1
     6    17    18   ar
     7    18    19   ar
     8    19    20   ar
     9    20    11    1
    10    11     9    1
    11     9     1    1
    12     1     2    1
    13     2     3    1
    14     3     4    1
    15     4    23    1
    16    23    24    1
    17    24    25    1
    18    24    26    1
    19    26    27    1
    20    27    28   ar
    21    28    29    2
    22    28    30   ar
    23    30    31   ar
    24    31    32   ar
    25    32    33   ar
    26    33    34   ar
    27    34    35   ar
    28    35    36    1
    29    35    37   ar
    30    37    38   ar
    31     4     5    1
    32     5     6    1
    33     4     7    1
    34     7     8    1
    35    20    21   ar
    36    21    22   ar
    37    22    13    1
    38    22    17   ar
    39     6     1    1
    40     8     1    1
    41    37    24    1
    42    38    27   ar
    43    38    32   ar
    44     9    10    1
    45    25    39    1
@<TRIPOS>MOLECULE
*****
 39 45 0 0 0
SMALL
GASTEIGER

@<TRIPOS>ATOM
      1 C         140.6112  139.3649  160.1480 C.3     1  UNL1        0.0700
      2 C         139.6469  139.9281  161.1494 C.3     1  UNL1        0.0193
      3 C         139.7080  139.4847  162.5811 C.3     1  UNL1        0.0287
      4 C         140.7335  138.4780  163.0114 C.3     1  UNL1        0.0955
      5 C         141.6978  137.9148  162.0100 C.3     1  UNL1        0.0287
      6 C         141.6366  138.3583  160.5783 C.3     1  UNL1        0.0193
      7 O         140.7386  138.6905  162.2159 O.3     1  UNL1       -0.3571
      8 C         140.6834  139.0914  160.9214 C.3     1  UNL1        0.1562
      9 N         140.5501  139.8083  158.7164 N.3     1  UNL1       -0.2926
     10 H         140.9081  139.0366  158.1536 H       1  UNL1        0.1236
     11 C         141.2868  141.0401  158.2807 C.3     1  UNL1        0.1152
     12 C         140.0322  144.5095  162.2354 C.3     1  UNL1        0.1138
     13 N         141.5278  144.3948  162.2416 N.pl3   1  UNL1       -0.2854
     14 C         142.3358  145.1761  163.2348 C.3     1  UNL1        0.1397
     15 C         143.8314  145.0614  163.2411 C.3     1  UNL1        0.2269
     16 O         144.5190  144.1654  162.2539 O.3     1  UNL1       -0.4708
     17 C         143.7109  143.3841  161.2606 C.ar    1  UNL1        0.1700
     18 C         144.3984  142.4880  160.2735 C.ar    1  UNL1        0.0411
     19 C         143.5904  141.7067  159.2802 C.ar    1  UNL1        0.0193
     20 C         142.0948  141.8215  159.2741 C.ar    1  UNL1        0.0765
     21 N         141.4073  142.7175  160.2612 N.ar    1  UNL1       -0.2306
     22 C         142.2153  143.4988  161.2545 C.ar    1  UNL1        0.1658
     23 C         140.7946  138.0346  164.4431 C.3     1  UNL1        0.0604
     24 C         141.4027  138.9312  165.4806 C.3     1  UNL1        0.1335
     25 O         142.6099  138.8786  164.5919 O.3     1  UNL1       -0.3806
     26 C         142.2631  139.8167  166.3323 C.3     1  UNL1        0.1402
     27 N         141.4605  140.2292  167.5306 N.ar    1  UNL1       -0.2915
     28 C         141.7896  141.0976  168.7085 C.ar    1  UNL1        0.2611
     29 O         143.1460  141.7282  168.8197 O.2     1  UNL1       -0.2670
     30 C         140.7623  141.3353  169.7753 C.ar    1  UNL1        0.0623
     31 C         139.4058  140.7046  169.6641 C.ar    1  UNL1        0.0254
     32 C         139.0767  139.8363  168.4861 C.ar    1  UNL1        0.0972
     33 N         137.8214  139.0882  168.1186 N.ar    1  UNL1       -0.2400
     34 C         137.6380  138.2483  166.8895 C.ar    1  UNL1        0.1282
     35 C         138.7615  138.1024  165.9063 C.ar    1  UNL1        0.1588
     36 F         138.5780  137.2625  164.6772 F       1  UNL1       -0.2027
     37 C         140.0683  138.7963  166.1524 C.ar    1  UNL1        0.0500
     38 C         140.1041  139.5986  167.4194 C.ar    1  UNL1        0.0806
     39 H         143.3202  139.4135  164.9794 H       1  UNL1        0.2108
@<TRIPOS>BOND
     1    12    13    1
     2    13    14    1
     3    14    15    1
     4    15    16    1
     5    16    17    1
     6    17    18   ar
     7    18    19   ar
     8    19    20   ar
     9    20    11    1
    10    11     9    1
    11     9     1    1
    12     1     2    1
    13     2     3    1
    14     3     4    1
    15     4    23    1
    16    23    24    1
    17    24    25    1
    18    24    26    1
    19    26    27    1
    20    27    28   ar
    21    28    29    2
    22    28    30   ar
    23    30    31   ar
    24    31    32   ar
    25    32    33   ar
    26    33    34   ar
    27    34    35   ar
    28    35    36    1
    29    35    37   ar
    30    37    38   ar
    31     4     5    1
    32     5     6    1
    33     4     7    1
    34     7     8    1
    35    20    21   ar
    36    21    22   ar
    37    22    13    1
    38    22    17   ar
    39     6     1    1
    40     8     1    1
    41    37    24    1
    42    38    27   ar
    43    38    32   ar
    44     9    10    1
    45    25    39    1
@<TRIPOS>MOLECULE
*****
 39 45 0 0 0
SMALL
GASTEIGER

@<TRIPOS>ATOM
      1 C         143.2200  144.3687  163.4791 C.3     1  UNL1        0.0700
      2 C         141.9745  145.1874  163.6480 C.3     1  UNL1        0.0193
      3 C         141.0451  145.3870  162.4876 C.3     1  UNL1        0.0287
      4 C         141.3613  144.7680  161.1583 C.3     1  UNL1        0.0955
      5 C         142.6068  143.9493  160.9895 C.3     1  UNL1        0.0287
      6 C         143.5361  143.7497  162.1499 C.3     1  UNL1        0.0193
      7 O         141.9008  144.6307  161.7650 O.3     1  UNL1       -0.3571
      8 C         142.7411  144.4502  162.8142 C.3     1  UNL1        0.1562
      9 N         144.1493  144.1690  164.6395 N.3     1  UNL1       -0.2926
     10 H         145.0942  144.1323  164.2571 H       1  UNL1        0.1236
     11 C         143.9943  142.9695  165.5267 C.3     1  UNL1        0.1152
     12 C         139.2865  140.3383  165.1226 C.3     1  UNL1        0.1138
     13 N         140.3128  139.4566  164.4751 N.pl3   1  UNL1       -0.2854
     14 C         139.9056  138.1375  163.8885 C.3     1  UNL1        0.1397
     15 C         140.9318  137.2558  163.2410 C.3     1  UNL1        0.2269
     16 O         142.3654  137.6931  163.1801 O.3     1  UNL1       -0.4708
     17 C         142.7726  139.0122  163.7667 C.ar    1  UNL1        0.1700
     18 C         144.2061  139.4496  163.7059 C.ar    1  UNL1        0.0411
     19 C         144.6133  140.7687  164.2925 C.ar    1  UNL1        0.0193
     20 C         143.5870  141.6504  164.9400 C.ar    1  UNL1        0.0765
     21 N         142.1535  141.2130  165.0009 N.ar    1  UNL1       -0.2306
     22 C         141.7463  139.8939  164.4142 C.ar    1  UNL1        0.1658
     23 C         140.4319  144.9677  159.9980 C.3     1  UNL1        0.0604
     24 C         139.5892  143.8279  159.5073 C.3     1  UNL1        0.1335
     25 O         139.1399  143.7513  160.9364 O.3     1  UNL1       -0.3806
     26 C         138.6525  142.6722  159.3153 C.3     1  UNL1        0.1402
     27 N         138.6990  142.2728  157.8702 N.ar    1  UNL1       -0.2915
     28 C         137.9870  141.1989  157.1023 C.ar    1  UNL1        0.2611
     29 O         137.0216  140.2900  157.8035 O.2     1  UNL1       -0.2670
     30 C         138.2405  141.0340  155.6331 C.ar    1  UNL1        0.0623
     31 C         139.2060  141.9430  154.9319 C.ar    1  UNL1        0.0254
     32 C         139.9180  143.0168  155.6999 C.ar    1  UNL1        0.0972
     33 N         140.9213  144.0541  155.2666 N.ar    1  UNL1       -0.2400
     34 C         141.5558  145.0772  156.1613 C.ar    1  UNL1        0.1282
     35 C         141.2025  145.1216  157.6185 C.ar    1  UNL1        0.1588
     36 F         141.8370  146.1447  158.5132 F       1  UNL1       -0.2027
     37 C         140.2146  144.1429  158.1808 C.ar    1  UNL1        0.0500
     38 C         139.6645  143.1818  157.1690 C.ar    1  UNL1        0.0806
     39 H         138.4976  143.0311  161.0352 H       1  UNL1        0.2108
@<TRIPOS>BOND
     1    12    13    1
     2    13    14    1
     3    14    15    1
     4    15    16    1
     5    16    17    1
     6    17    18   ar
     7    18    19   ar
     8    19    20   ar
     9    20    11    1
    10    11     9    1
    11     9     1    1
    12     1     2    1
    13     2     3    1
    14     3     4    1
    15     4    23    1
    16    23    24    1
    17    24    25    1
    18    24    26    1
    19    26    27    1
    20    27    28   ar
    21    28    29    2
    22    28    30   ar
    23    30    31   ar
    24    31    32   ar
    25    32    33   ar
    26    33    34   ar
    27    34    35   ar
    28    35    36    1
    29    35    37   ar
    30    37    38   ar
    31     4     5    1
    32     5     6    1
    33     4     7    1
    34     7     8    1
    35    20    21   ar
    36    21    22   ar
    37    22    13    1
    38    22    17   ar
    39     6     1    1
    40     8     1    1
    41    37    24    1
    42    38    27   ar
    43    38    32   ar
    44     9    10    1
    45    25    39    1
@<TRIPOS>MOLECULE
*****
 39 45 0 0 0
SMALL
GASTEIGER

@<TRIPOS>ATOM
      1 C         141.9611  144.2464  161.5827 C.3     1  UNL1        0.0700
      2 C         143.1634  143.3542  161.6742 C.3     1  UNL1        0.0193
      3 C         143.2801  142.3655  162.7961 C.3     1  UNL1        0.0287
      4 C         142.1943  142.2689  163.8267 C.3     1  UNL1        0.0955
      5 C         140.9920  143.1611  163.7353 C.3     1  UNL1        0.0287
      6 C         140.8754  144.1498  162.6133 C.3     1  UNL1        0.0193
      7 O         142.0860  142.8261  163.2302 O.3     1  UNL1       -0.3571
      8 C         141.9805  143.7201  162.2158 C.3     1  UNL1        0.1562
      9 N         141.8444  145.2352  160.4608 N.3     1  UNL1       -0.2926
     10 H         141.3488  146.0454  160.8327 H       1  UNL1        0.1236
     11 C         141.1488  144.8482  159.1895 C.3     1  UNL1        0.1152
     12 C         143.2897  140.1460  157.5907 C.3     1  UNL1        0.1138
     13 N         141.8504  139.8627  157.9041 N.pl3   1  UNL1       -0.2854
     14 C         141.3062  138.4746  157.7395 C.3     1  UNL1        0.1397
     15 C         139.8670  138.1912  158.0530 C.3     1  UNL1        0.2269
     16 O         138.9719  139.2959  158.5311 O.3     1  UNL1       -0.4708
     17 C         139.5161  140.6840  158.6957 C.ar    1  UNL1        0.1700
     18 C         138.6211  141.7887  159.1737 C.ar    1  UNL1        0.0411
     19 C         139.1654  143.1767  159.3383 C.ar    1  UNL1        0.0193
     20 C         140.6046  143.4601  159.0249 C.ar    1  UNL1        0.0765
     21 N         141.4996  142.3554  158.5468 N.ar    1  UNL1       -0.2306
     22 C         140.9554  140.9673  158.3822 C.ar    1  UNL1        0.1658
     23 C         142.3110  141.2801  164.9486 C.3     1  UNL1        0.0604
     24 C         142.4483  141.7626  166.3622 C.3     1  UNL1        0.1335
     25 O         143.6316  142.5119  165.8252 O.3     1  UNL1       -0.3806
     26 C         142.8330  142.4016  167.6636 C.3     1  UNL1        0.1402
     27 N         141.8588  141.9464  168.7095 N.ar    1  UNL1       -0.2915
     28 C         141.7427  142.2511  170.1736 C.ar    1  UNL1        0.2611
     29 O         142.7295  143.1715  170.8286 O.2     1  UNL1       -0.2670
     30 C         140.6399  141.6354  170.9826 C.ar    1  UNL1        0.0623
     31 C         139.6531  140.7150  170.3276 C.ar    1  UNL1        0.0254
     32 C         139.7692  140.4103  168.8635 C.ar    1  UNL1        0.0972
     33 N         138.9377  139.5398  167.9572 N.ar    1  UNL1       -0.2400
     34 C         139.1792  139.3295  166.4918 C.ar    1  UNL1        0.1282
     35 C         140.3285  140.0158  165.8151 C.ar    1  UNL1        0.1588
     36 F         140.5701  139.8054  164.3497 F       1  UNL1       -0.2027
     37 C         141.2364  140.9124  166.6038 C.ar    1  UNL1        0.0500
     38 C         140.8720  141.0260  168.0544 C.ar    1  UNL1        0.0806
     39 H         144.0466  143.0172  166.5417 H       1  UNL1        0.2108
@<TRIPOS>BOND
     1    12    13    1
     2    13    14    1
     3    14    15    1
     4    15    16    1
     5    16    17    1
     6    17    18   ar
     7    18    19   ar
     8    19    20   ar
     9    20    11    1
    10    11     9    1
    11     9     1    1
    12     1     2    1
    13     2     3    1
    14     3     4    1
    15     4    23    1
    16    23    24    1
    17    24    25    1
    18    24    26    1
    19    26    27    1
    20    27    28   ar
    21    28    29    2
    22    28    30   ar
    23    30    31   ar
    24    31    32   ar
    25    32    33   ar
    26    33    34   ar
    27    34    35   ar
    28    35    36    1
    29    35    37   ar
    30    37    38   ar
    31     4     5    1
    32     5     6    1
    33     4     7    1
    34     7     8    1
    35    20    21   ar
    36    21    22   ar
    37    22    13    1
    38    22    17   ar
    39     6     1    1
    40     8     1    1
    41    37    24    1
    42    38    27   ar
    43    38    32   ar
    44     9    10    1
    45    25    39    1
