@<TRIPOS>MOLECULE
*****
 28 31 0 0 0
SMALL
GASTEIGER

@<TRIPOS>ATOM
      1 C         138.4856  143.3390  163.0687 C.ar    1  UNL1        0.2641
      2 N         137.5251  142.4910  162.2886 N.ar    1  UNL1       -0.0388
      3 O         137.3383  141.2006  163.0302 O.2     1  UNL1       -0.3504
      4 C         138.1832  141.2510  164.2686 C.ar    1  UNL1        0.1800
      5 C         138.3985  140.2643  165.3776 C.ar    1  UNL1        0.0404
      6 C         139.3229  140.5992  166.5104 C.ar    1  UNL1        0.0033
      7 C         140.0320  141.9208  166.5342 C.ar    1  UNL1        0.0012
      8 C         139.8167  142.9075  165.4252 C.ar    1  UNL1        0.0079
      9 C         138.8923  142.5726  164.2924 C.ar    1  UNL1        0.0932
     10 C         140.9565  142.2556  167.6671 C.ar    1  UNL1        0.0106
     11 C         140.4350  142.9833  168.8706 C.ar    1  UNL1        0.0008
     12 C         141.3595  143.3182  170.0034 C.ar    1  UNL1        0.0001
     13 C         142.8054  142.9252  169.9327 C.ar    1  UNL1        0.0009
     14 C         143.3268  142.1975  168.7292 C.ar    1  UNL1        0.0114
     15 C         142.4024  141.8627  167.5964 C.ar    1  UNL1        0.0576
     16 CL        142.9238  141.1349  166.3928 Cl      1  UNL1       -0.0822
     17 O         138.9566  144.7122  162.6914 O.3     1  UNL1       -0.4560
     18 C         140.2759  144.8889  161.9997 C.3     1  UNL1        0.2053
     19 C         141.5402  144.4384  162.6695 C.ar    1  UNL1        0.0186
     20 C         142.1007  143.0783  162.3765 C.ar    1  UNL1       -0.0008
     21 C         143.3650  142.6279  163.0463 C.ar    1  UNL1       -0.0002
     22 C         144.0687  143.5376  164.0092 C.ar    1  UNL1       -0.0000
     23 C         143.5081  144.8977  164.3023 C.ar    1  UNL1       -0.0002
     24 C         142.2439  145.3481  163.6324 C.ar    1  UNL1       -0.0008
     25 N         141.6204  145.5342  159.8723 N.3     1  UNL1       -0.3179
     26 C         140.3308  145.5160  160.6382 C.3     1  UNL1        0.1140
     27 H         141.4760  145.9958  158.9743 H       1  UNL1        0.1190
     28 H         141.9364  144.5771  159.7157 H       1  UNL1        0.1190
@<TRIPOS>BOND
     1    25    26    1
     2    18    26    1
     3    18    17    1
     4    17     1    1
     5     1     2   ar
     6     2     3   ar
     7     3     4   ar
     8     4     5   ar
     9     5     6   ar
    10     6     7   ar
    11     7    10    1
    12    10    11   ar
    13    11    12   ar
    14    12    13   ar
    15    13    14   ar
    16    14    15   ar
    17    15    16    1
    18     7     8   ar
    19     8     9   ar
    20    18    19    1
    21    19    20   ar
    22    20    21   ar
    23    21    22   ar
    24    22    23   ar
    25    23    24   ar
    26     9     1   ar
    27    24    19   ar
    28     9     4   ar
    29    15    10   ar
    30    25    27    1
    31    25    28    1
@<TRIPOS>MOLECULE
*****
 28 31 0 0 0
SMALL
GASTEIGER

@<TRIPOS>ATOM
      1 C         139.7801  140.7816  169.1861 C.ar    1  UNL1        0.2641
      2 N         138.8802  140.5807  170.3693 N.ar    1  UNL1       -0.0388
      3 O         137.8133  139.6012  169.9791 O.2     1  UNL1       -0.3504
      4 C         138.0537  139.1968  168.5548 C.ar    1  UNL1        0.1800
      5 C         137.3228  138.2585  167.6408 C.ar    1  UNL1        0.0404
      6 C         137.8075  138.0497  166.2367 C.ar    1  UNL1        0.0033
      7 C         139.0230  138.7792  165.7466 C.ar    1  UNL1        0.0012
      8 C         139.7539  139.7175  166.6606 C.ar    1  UNL1        0.0079
      9 C         139.2693  139.9263  168.0647 C.ar    1  UNL1        0.0932
     10 C         139.5077  138.5704  164.3425 C.ar    1  UNL1        0.0106
     11 C         140.5946  137.5747  164.0645 C.ar    1  UNL1        0.0008
     12 C         141.0793  137.3659  162.6604 C.ar    1  UNL1        0.0001
     13 C         140.4770  138.1528  161.5342 C.ar    1  UNL1        0.0009
     14 C         139.3901  139.1484  161.8123 C.ar    1  UNL1        0.0114
     15 C         138.9054  139.3572  163.2164 C.ar    1  UNL1        0.0576
     16 CL        137.8185  140.3529  163.4944 Cl      1  UNL1       -0.0822
     17 O         140.9801  141.6800  169.1335 O.3     1  UNL1       -0.4560
     18 C         142.3526  141.0909  168.9939 C.3     1  UNL1        0.2053
     19 C         142.7912  140.5145  167.6803 C.ar    1  UNL1        0.0186
     20 C         143.0354  139.0400  167.5524 C.ar    1  UNL1       -0.0008
     21 C         143.4741  138.4636  166.2389 C.ar    1  UNL1       -0.0002
     22 C         143.6686  139.3617  165.0534 C.ar    1  UNL1       -0.0000
     23 C         143.4244  140.8362  165.1813 C.ar    1  UNL1       -0.0002
     24 C         142.9858  141.4126  166.4948 C.ar    1  UNL1       -0.0008
     25 N         143.3596  139.8709  171.0548 N.3     1  UNL1       -0.3179
     26 C         143.2863  141.0782  170.1677 C.3     1  UNL1        0.1140
     27 H         144.0403  140.0347  171.7965 H       1  UNL1        0.1190
     28 H         143.6451  139.0612  170.5041 H       1  UNL1        0.1190
@<TRIPOS>BOND
     1    25    26    1
     2    18    26    1
     3    18    17    1
     4    17     1    1
     5     1     2   ar
     6     2     3   ar
     7     3     4   ar
     8     4     5   ar
     9     5     6   ar
    10     6     7   ar
    11     7    10    1
    12    10    11   ar
    13    11    12   ar
    14    12    13   ar
    15    13    14   ar
    16    14    15   ar
    17    15    16    1
    18     7     8   ar
    19     8     9   ar
    20    18    19    1
    21    19    20   ar
    22    20    21   ar
    23    21    22   ar
    24    22    23   ar
    25    23    24   ar
    26     9     1   ar
    27    24    19   ar
    28     9     4   ar
    29    15    10   ar
    30    25    27    1
    31    25    28    1
@<TRIPOS>MOLECULE
*****
 28 31 0 0 0
SMALL
GASTEIGER

@<TRIPOS>ATOM
      1 C         143.2035  139.1277  163.2621 C.ar    1  UNL1        0.2641
      2 N         144.1137  139.3064  162.0833 N.ar    1  UNL1       -0.0388
      3 O         144.8540  140.5989  162.2610 O.2     1  UNL1       -0.3504
      4 C         144.4013  141.2190  163.5496 C.ar    1  UNL1        0.1800
      5 C         144.7861  142.4941  164.2395 C.ar    1  UNL1        0.0404
      6 C         144.1509  142.8599  165.5481 C.ar    1  UNL1        0.0033
      7 C         143.1308  141.9507  166.1669 C.ar    1  UNL1        0.0012
      8 C         142.7460  140.6756  165.4770 C.ar    1  UNL1        0.0079
      9 C         143.3812  140.3098  164.1683 C.ar    1  UNL1        0.0932
     10 C         142.4956  142.3166  167.4756 C.ar    1  UNL1        0.0106
     11 C         143.2793  142.1974  168.7490 C.ar    1  UNL1        0.0008
     12 C         142.6441  142.5634  170.0577 C.ar    1  UNL1        0.0001
     13 C         141.2252  143.0485  170.0929 C.ar    1  UNL1        0.0009
     14 C         140.4414  143.1677  168.8195 C.ar    1  UNL1        0.0114
     15 C         141.0767  142.8018  167.5108 C.ar    1  UNL1        0.0576
     16 CL        140.2929  142.9210  166.2374 Cl      1  UNL1       -0.0822
     17 O         142.2781  137.9703  163.4940 O.3     1  UNL1       -0.4560
     18 C         140.8180  138.1020  163.1764 C.3     1  UNL1        0.2053
     19 C         139.8292  138.3413  164.2787 C.ar    1  UNL1        0.0186
     20 C         139.4259  139.7418  164.6335 C.ar    1  UNL1       -0.0008
     21 C         138.4371  139.9811  165.7358 C.ar    1  UNL1       -0.0002
     22 C         137.8519  138.8198  166.4834 C.ar    1  UNL1       -0.0000
     23 C         138.2552  137.4193  166.1286 C.ar    1  UNL1       -0.0002
     24 C         139.2440  137.1801  165.0262 C.ar    1  UNL1       -0.0008
     25 N         138.8869  137.8140  161.4623 N.3     1  UNL1       -0.3179
     26 C         140.3467  137.9946  161.7564 C.3     1  UNL1        0.1140
     27 H         138.7475  137.7604  160.4532 H       1  UNL1        0.1190
     28 H         138.3643  138.6062  161.8360 H       1  UNL1        0.1190
@<TRIPOS>BOND
     1    25    26    1
     2    18    26    1
     3    18    17    1
     4    17     1    1
     5     1     2   ar
     6     2     3   ar
     7     3     4   ar
     8     4     5   ar
     9     5     6   ar
    10     6     7   ar
    11     7    10    1
    12    10    11   ar
    13    11    12   ar
    14    12    13   ar
    15    13    14   ar
    16    14    15   ar
    17    15    16    1
    18     7     8   ar
    19     8     9   ar
    20    18    19    1
    21    19    20   ar
    22    20    21   ar
    23    21    22   ar
    24    22    23   ar
    25    23    24   ar
    26     9     1   ar
    27    24    19   ar
    28     9     4   ar
    29    15    10   ar
    30    25    27    1
    31    25    28    1
@<TRIPOS>MOLECULE
*****
 28 31 0 0 0
SMALL
GASTEIGER

@<TRIPOS>ATOM
      1 C         138.1324  140.5995  163.3855 C.ar    1  UNL1        0.2641
      2 N         137.2340  141.2678  162.3874 N.ar    1  UNL1       -0.0388
      3 O         137.2189  142.7372  162.6884 O.2     1  UNL1       -0.3504
      4 C         138.1080  142.9770  163.8725 C.ar    1  UNL1        0.1800
      5 C         138.4764  144.2278  164.6140 C.ar    1  UNL1        0.0404
      6 C         139.4094  144.1572  165.7864 C.ar    1  UNL1        0.0033
      7 C         139.9739  142.8360  166.2172 C.ar    1  UNL1        0.0012
      8 C         139.6055  141.5853  165.4757 C.ar    1  UNL1        0.0079
      9 C         138.6725  141.6558  164.3033 C.ar    1  UNL1        0.0932
     10 C         140.9070  142.7655  167.3897 C.ar    1  UNL1        0.0106
     11 C         140.4049  143.0803  168.7677 C.ar    1  UNL1        0.0008
     12 C         141.3380  143.0098  169.9401 C.ar    1  UNL1        0.0001
     13 C         142.7730  142.6246  169.7345 C.ar    1  UNL1        0.0009
     14 C         143.2750  142.3099  168.3564 C.ar    1  UNL1        0.0114
     15 C         142.3420  142.3803  167.1841 C.ar    1  UNL1        0.0576
     16 CL        142.8440  142.0656  165.8060 Cl      1  UNL1       -0.0822
     17 O         138.4371  139.1324  163.4538 O.3     1  UNL1       -0.4560
     18 C         139.6798  138.5936  162.8090 C.3     1  UNL1        0.2053
     19 C         140.9901  138.6571  163.5364 C.ar    1  UNL1        0.0186
     20 C         142.2403  139.0335  162.7980 C.ar    1  UNL1       -0.0008
     21 C         143.5506  139.0970  163.5254 C.ar    1  UNL1       -0.0002
     22 C         143.6106  138.7841  164.9912 C.ar    1  UNL1       -0.0000
     23 C         142.3603  138.4078  165.7295 C.ar    1  UNL1       -0.0002
     24 C         141.0500  138.3443  165.0021 C.ar    1  UNL1       -0.0008
     25 N         138.9356  138.7354  160.3238 N.3     1  UNL1       -0.3179
     26 C         139.6121  137.9915  161.4369 C.3     1  UNL1        0.1140
     27 H         138.9826  138.1828  159.4678 H       1  UNL1        0.1190
     28 H         139.4049  139.6291  160.1778 H       1  UNL1        0.1190
@<TRIPOS>BOND
     1    25    26    1
     2    18    26    1
     3    18    17    1
     4    17     1    1
     5     1     2   ar
     6     2     3   ar
     7     3     4   ar
     8     4     5   ar
     9     5     6   ar
    10     6     7   ar
    11     7    10    1
    12    10    11   ar
    13    11    12   ar
    14    12    13   ar
    15    13    14   ar
    16    14    15   ar
    17    15    16    1
    18     7     8   ar
    19     8     9   ar
    20    18    19    1
    21    19    20   ar
    22    20    21   ar
    23    21    22   ar
    24    22    23   ar
    25    23    24   ar
    26     9     1   ar
    27    24    19   ar
    28     9     4   ar
    29    15    10   ar
    30    25    27    1
    31    25    28    1
@<TRIPOS>MOLECULE
*****
 28 31 0 0 0
SMALL
GASTEIGER

@<TRIPOS>ATOM
      1 C         142.8153  144.4020  163.0614 C.ar    1  UNL1        0.2641
      2 N         144.2034  144.5002  162.5014 N.ar    1  UNL1       -0.0388
      3 O         144.9312  143.2336  162.8422 O.2     1  UNL1       -0.3504
      4 C         143.9930  142.3527  163.6127 C.ar    1  UNL1        0.1800
      5 C         144.1604  140.9864  164.2085 C.ar    1  UNL1        0.0404
      6 C         143.0202  140.3422  164.9398 C.ar    1  UNL1        0.0033
      7 C         141.7124  141.0643  165.0752 C.ar    1  UNL1        0.0012
      8 C         141.5450  142.4307  164.4795 C.ar    1  UNL1        0.0079
      9 C         142.6852  143.0749  163.7482 C.ar    1  UNL1        0.0932
     10 C         140.5722  140.4200  165.8065 C.ar    1  UNL1        0.0106
     11 C         140.4723  140.5436  167.2981 C.ar    1  UNL1        0.0008
     12 C         139.3320  139.8993  168.0294 C.ar    1  UNL1        0.0001
     13 C         138.2916  139.1315  167.2691 C.ar    1  UNL1        0.0009
     14 C         138.3915  139.0080  165.7774 C.ar    1  UNL1        0.0114
     15 C         139.5318  139.6523  165.0462 C.ar    1  UNL1        0.0576
     16 CL        139.6317  139.5288  163.5546 Cl      1  UNL1       -0.0822
     17 O         141.7451  145.4475  162.9535 O.3     1  UNL1       -0.4560
     18 C         140.5011  145.1687  162.1629 C.3     1  UNL1        0.2053
     19 C         139.3942  144.3571  162.7679 C.ar    1  UNL1        0.0186
     20 C         138.8314  143.1831  162.0229 C.ar    1  UNL1       -0.0008
     21 C         137.7245  142.3715  162.6279 C.ar    1  UNL1       -0.0002
     22 C         137.1804  142.7340  163.9779 C.ar    1  UNL1       -0.0000
     23 C         137.7432  143.9079  164.7229 C.ar    1  UNL1       -0.0002
     24 C         138.8501  144.7195  164.1179 C.ar    1  UNL1       -0.0008
     25 N         141.4750  145.5077  159.7782 N.3     1  UNL1       -0.3179
     26 C         140.3642  145.7014  160.7674 C.3     1  UNL1        0.1140
     27 H         141.2142  145.9299  158.8871 H       1  UNL1        0.1190
     28 H         141.6423  144.5103  159.6459 H       1  UNL1        0.1190
@<TRIPOS>BOND
     1    25    26    1
     2    18    26    1
     3    18    17    1
     4    17     1    1
     5     1     2   ar
     6     2     3   ar
     7     3     4   ar
     8     4     5   ar
     9     5     6   ar
    10     6     7   ar
    11     7    10    1
    12    10    11   ar
    13    11    12   ar
    14    12    13   ar
    15    13    14   ar
    16    14    15   ar
    17    15    16    1
    18     7     8   ar
    19     8     9   ar
    20    18    19    1
    21    19    20   ar
    22    20    21   ar
    23    21    22   ar
    24    22    23   ar
    25    23    24   ar
    26     9     1   ar
    27    24    19   ar
    28     9     4   ar
    29    15    10   ar
    30    25    27    1
    31    25    28    1
@<TRIPOS>MOLECULE
*****
 28 31 0 0 0
SMALL
GASTEIGER

@<TRIPOS>ATOM
      1 C         142.7103  144.6581  163.2698 C.ar    1  UNL1        0.2641
      2 N         143.9246  144.6295  162.3897 N.ar    1  UNL1       -0.0388
      3 O         144.7226  143.4088  162.7406 O.2     1  UNL1       -0.3504
      4 C         144.0014  142.6830  163.8375 C.ar    1  UNL1        0.1800
      5 C         144.3165  141.4188  164.5807 C.ar    1  UNL1        0.0404
      6 C         143.3879  140.9267  165.6509 C.ar    1  UNL1        0.0033
      7 C         142.1442  141.6988  165.9780 C.ar    1  UNL1        0.0012
      8 C         141.8291  142.9630  165.2348 C.ar    1  UNL1        0.0079
      9 C         142.7577  143.4551  164.1645 C.ar    1  UNL1        0.0932
     10 C         141.2156  141.2067  167.0483 C.ar    1  UNL1        0.0106
     11 C         140.0674  140.3100  166.6910 C.ar    1  UNL1        0.0008
     12 C         139.1388  139.8178  167.7613 C.ar    1  UNL1        0.0001
     13 C         139.3584  140.2224  169.1889 C.ar    1  UNL1        0.0009
     14 C         140.5066  141.1191  169.5462 C.ar    1  UNL1        0.0114
     15 C         141.4351  141.6112  168.4759 C.ar    1  UNL1        0.0576
     16 CL        142.5834  142.5080  168.8332 Cl      1  UNL1       -0.0822
     17 O         141.6369  145.7058  163.2573 O.3     1  UNL1       -0.4560
     18 C         140.3103  145.4129  162.6211 C.3     1  UNL1        0.2053
     19 C         139.4749  144.2714  163.1201 C.ar    1  UNL1        0.0186
     20 C         138.5905  144.4564  164.3174 C.ar    1  UNL1       -0.0008
     21 C         137.7552  143.3148  164.8164 C.ar    1  UNL1       -0.0002
     22 C         137.8042  141.9883  164.1180 C.ar    1  UNL1       -0.0000
     23 C         138.6886  141.8032  162.9206 C.ar    1  UNL1       -0.0002
     24 C         139.5240  142.9448  162.4217 C.ar    1  UNL1       -0.0008
     25 N         139.8707  145.7383  160.0812 N.3     1  UNL1       -0.3179
     26 C         139.8192  146.2617  161.4860 C.3     1  UNL1        0.1140
     27 H         139.4997  146.4417  159.4425 H       1  UNL1        0.1190
     28 H         139.3101  144.8887  160.0142 H       1  UNL1        0.1190
@<TRIPOS>BOND
     1    25    26    1
     2    18    26    1
     3    18    17    1
     4    17     1    1
     5     1     2   ar
     6     2     3   ar
     7     3     4   ar
     8     4     5   ar
     9     5     6   ar
    10     6     7   ar
    11     7    10    1
    12    10    11   ar
    13    11    12   ar
    14    12    13   ar
    15    13    14   ar
    16    14    15   ar
    17    15    16    1
    18     7     8   ar
    19     8     9   ar
    20    18    19    1
    21    19    20   ar
    22    20    21   ar
    23    21    22   ar
    24    22    23   ar
    25    23    24   ar
    26     9     1   ar
    27    24    19   ar
    28     9     4   ar
    29    15    10   ar
    30    25    27    1
    31    25    28    1
@<TRIPOS>MOLECULE
*****
 28 31 0 0 0
SMALL
GASTEIGER

@<TRIPOS>ATOM
      1 C         139.4137  140.0464  168.7022 C.ar    1  UNL1        0.2641
      2 N         138.0943  139.4983  169.1589 N.ar    1  UNL1       -0.0388
      3 O         137.5280  138.6664  168.0465 O.2     1  UNL1       -0.3504
      4 C         138.4974  138.7004  166.9024 C.ar    1  UNL1        0.1800
      5 C         138.4695  138.0650  165.5440 C.ar    1  UNL1        0.0404
      6 C         139.6071  138.2824  164.5908 C.ar    1  UNL1        0.0033
      7 C         140.7726  139.1353  164.9961 C.ar    1  UNL1        0.0012
      8 C         140.8005  139.7707  166.3545 C.ar    1  UNL1        0.0079
      9 C         139.6629  139.5533  167.3077 C.ar    1  UNL1        0.0932
     10 C         141.9102  139.3527  164.0428 C.ar    1  UNL1        0.0106
     11 C         141.6531  139.9535  162.6927 C.ar    1  UNL1        0.0008
     12 C         142.7907  140.1710  161.7395 C.ar    1  UNL1        0.0001
     13 C         144.1855  139.7875  162.1364 C.ar    1  UNL1        0.0009
     14 C         144.4426  139.1866  163.4866 C.ar    1  UNL1        0.0114
     15 C         143.3050  138.9692  164.4397 C.ar    1  UNL1        0.0576
     16 CL        143.5622  138.3683  165.7899 Cl      1  UNL1       -0.0822
     17 O         140.3242  140.9321  169.5001 O.3     1  UNL1       -0.4560
     18 C         140.6198  142.3246  169.0270 C.3     1  UNL1        0.2053
     19 C         141.2720  142.5411  167.6937 C.ar    1  UNL1        0.0186
     20 C         140.4664  143.0615  166.5404 C.ar    1  UNL1       -0.0008
     21 C         141.1186  143.2781  165.2071 C.ar    1  UNL1       -0.0002
     22 C         142.5764  142.9742  165.0271 C.ar    1  UNL1       -0.0000
     23 C         143.3820  142.4538  166.1805 C.ar    1  UNL1       -0.0002
     24 C         142.7298  142.2373  167.5138 C.ar    1  UNL1       -0.0008
     25 N         139.3680  143.3156  171.0766 N.3     1  UNL1       -0.3179
     26 C         140.2632  143.5005  169.8873 C.3     1  UNL1        0.1140
     27 H         139.2324  144.2127  171.5428 H       1  UNL1        0.1190
     28 H         139.7970  142.6564  171.7260 H       1  UNL1        0.1190
@<TRIPOS>BOND
     1    25    26    1
     2    18    26    1
     3    18    17    1
     4    17     1    1
     5     1     2   ar
     6     2     3   ar
     7     3     4   ar
     8     4     5   ar
     9     5     6   ar
    10     6     7   ar
    11     7    10    1
    12    10    11   ar
    13    11    12   ar
    14    12    13   ar
    15    13    14   ar
    16    14    15   ar
    17    15    16    1
    18     7     8   ar
    19     8     9   ar
    20    18    19    1
    21    19    20   ar
    22    20    21   ar
    23    21    22   ar
    24    22    23   ar
    25    23    24   ar
    26     9     1   ar
    27    24    19   ar
    28     9     4   ar
    29    15    10   ar
    30    25    27    1
    31    25    28    1
@<TRIPOS>MOLECULE
*****
 28 31 0 0 0
SMALL
GASTEIGER

@<TRIPOS>ATOM
      1 C         141.8984  138.2316  163.7337 C.ar    1  UNL1        0.2641
      2 N         141.1443  137.3111  162.8205 N.ar    1  UNL1       -0.0388
      3 O         139.7393  137.1978  163.3335 O.2     1  UNL1       -0.3504
      4 C         139.6251  138.0483  164.5638 C.ar    1  UNL1        0.1800
      5 C         138.4784  138.3234  165.4909 C.ar    1  UNL1        0.0404
      6 C         138.6661  139.2375  166.6652 C.ar    1  UNL1        0.0033
      7 C         140.0005  139.8765  166.9126 C.ar    1  UNL1        0.0012
      8 C         141.1472  139.6013  165.9855 C.ar    1  UNL1        0.0079
      9 C         140.9595  138.6872  164.8112 C.ar    1  UNL1        0.0932
     10 C         140.1882  140.7906  168.0870 C.ar    1  UNL1        0.0106
     11 C         140.2367  140.2267  169.4761 C.ar    1  UNL1        0.0008
     12 C         140.4243  141.1408  170.6505 C.ar    1  UNL1        0.0001
     13 C         140.5636  142.6188  170.4358 C.ar    1  UNL1        0.0009
     14 C         140.5151  143.1827  169.0466 C.ar    1  UNL1        0.0114
     15 C         140.3274  142.2686  167.8722 C.ar    1  UNL1        0.0576
     16 CL        140.2790  142.8325  166.4830 Cl      1  UNL1       -0.0822
     17 O         143.3385  138.6271  163.5941 O.3     1  UNL1       -0.4560
     18 C         143.7100  139.8325  162.7820 C.3     1  UNL1        0.2053
     19 C         143.6289  141.2010  163.3908 C.ar    1  UNL1        0.0186
     20 C         144.6721  141.6487  164.3713 C.ar    1  UNL1       -0.0008
     21 C         144.5910  143.0172  164.9801 C.ar    1  UNL1       -0.0002
     22 C         143.4668  143.9379  164.6084 C.ar    1  UNL1       -0.0000
     23 C         142.4236  143.4903  163.6279 C.ar    1  UNL1       -0.0002
     24 C         142.5047  142.1217  163.0191 C.ar    1  UNL1       -0.0008
     25 N         144.5206  138.3093  160.8397 N.3     1  UNL1       -0.3179
     26 C         144.1624  139.6693  161.3612 C.3     1  UNL1        0.1140
     27 H         144.8041  138.3836  159.8627 H       1  UNL1        0.1190
     28 H         143.7110  137.6930  160.9128 H       1  UNL1        0.1190
@<TRIPOS>BOND
     1    25    26    1
     2    18    26    1
     3    18    17    1
     4    17     1    1
     5     1     2   ar
     6     2     3   ar
     7     3     4   ar
     8     4     5   ar
     9     5     6   ar
    10     6     7   ar
    11     7    10    1
    12    10    11   ar
    13    11    12   ar
    14    12    13   ar
    15    13    14   ar
    16    14    15   ar
    17    15    16    1
    18     7     8   ar
    19     8     9   ar
    20    18    19    1
    21    19    20   ar
    22    20    21   ar
    23    21    22   ar
    24    22    23   ar
    25    23    24   ar
    26     9     1   ar
    27    24    19   ar
    28     9     4   ar
    29    15    10   ar
    30    25    27    1
    31    25    28    1
@<TRIPOS>MOLECULE
*****
 28 31 0 0 0
SMALL
GASTEIGER

@<TRIPOS>ATOM
      1 C         142.9618  143.2329  162.5797 C.ar    1  UNL1        0.2641
      2 N         142.6839  144.2724  161.5347 N.ar    1  UNL1       -0.0388
      3 O         141.4498  145.0212  161.9425 O.2     1  UNL1       -0.3504
      4 C         140.9649  144.4444  163.2395 C.ar    1  UNL1        0.1800
      5 C         139.7933  144.7828  164.1128 C.ar    1  UNL1        0.0404
      6 C         139.5562  144.0160  165.3799 C.ar    1  UNL1        0.0033
      7 C         140.4907  142.9107  165.7738 C.ar    1  UNL1        0.0012
      8 C         141.6623  142.5723  164.9005 C.ar    1  UNL1        0.0079
      9 C         141.8994  143.3391  163.6333 C.ar    1  UNL1        0.0932
     10 C         140.2535  142.1438  167.0410 C.ar    1  UNL1        0.0106
     11 C         140.6148  142.7513  168.3640 C.ar    1  UNL1        0.0008
     12 C         140.3776  141.9844  169.6312 C.ar    1  UNL1        0.0001
     13 C         139.7791  140.6101  169.5753 C.ar    1  UNL1        0.0009
     14 C         139.4179  140.0027  168.2522 C.ar    1  UNL1        0.0114
     15 C         139.6550  140.7695  166.9851 C.ar    1  UNL1        0.0576
     16 CL        139.2938  140.1621  165.6619 Cl      1  UNL1       -0.0822
     17 O         144.1019  142.2581  162.5724 O.3     1  UNL1       -0.4560
     18 C         143.8476  140.8087  162.2811 C.3     1  UNL1        0.2053
     19 C         143.4180  139.8863  163.3832 C.ar    1  UNL1        0.0186
     20 C         144.2551  139.7557  164.6210 C.ar    1  UNL1       -0.0008
     21 C         143.8255  138.8334  165.7231 C.ar    1  UNL1       -0.0002
     22 C         142.5587  138.0417  165.5873 C.ar    1  UNL1       -0.0000
     23 C         141.7216  138.1723  164.3495 C.ar    1  UNL1       -0.0002
     24 C         142.1512  139.0947  163.2474 C.ar    1  UNL1       -0.0008
     25 N         144.5123  138.8804  160.6718 N.3     1  UNL1       -0.3179
     26 C         144.0230  140.2818  160.8877 C.3     1  UNL1        0.1140
     27 H         144.5719  138.6914  159.6712 H       1  UNL1        0.1190
     28 H         143.8628  138.2232  161.1038 H       1  UNL1        0.1190
@<TRIPOS>BOND
     1    25    26    1
     2    18    26    1
     3    18    17    1
     4    17     1    1
     5     1     2   ar
     6     2     3   ar
     7     3     4   ar
     8     4     5   ar
     9     5     6   ar
    10     6     7   ar
    11     7    10    1
    12    10    11   ar
    13    11    12   ar
    14    12    13   ar
    15    13    14   ar
    16    14    15   ar
    17    15    16    1
    18     7     8   ar
    19     8     9   ar
    20    18    19    1
    21    19    20   ar
    22    20    21   ar
    23    21    22   ar
    24    22    23   ar
    25    23    24   ar
    26     9     1   ar
    27    24    19   ar
    28     9     4   ar
    29    15    10   ar
    30    25    27    1
    31    25    28    1
