@<TRIPOS>MOLECULE
*****
 38 41 0 0 0
SMALL
GASTEIGER

@<TRIPOS>ATOM
      1 C         141.3284  138.5399  160.5532 C.ar    1  UNL1        0.1389
      2 C         142.2084  137.5638  161.2766 C.ar    1  UNL1        0.0369
      3 C         143.6591  137.8787  161.4920 C.ar    1  UNL1        0.0028
      4 C         144.2298  139.1696  160.9842 C.ar    1  UNL1       -0.0024
      5 C         143.3498  140.1456  160.2609 C.ar    1  UNL1        0.0008
      6 C         141.8991  139.8307  160.0454 C.ar    1  UNL1        0.0343
      7 O         139.8778  138.2249  160.3378 O.3     1  UNL1       -0.4689
      8 C         138.9381  138.1819  161.5062 C.3     1  UNL1        0.2537
      9 C         139.2747  140.4143  164.6635 C.ar    1  UNL1        0.2290
     10 N         139.3597  139.0771  163.9893 N.ar    1  UNL1       -0.2093
     11 C         138.9869  139.2600  162.5479 C.ar    1  UNL1        0.1359
     12 C         138.6715  140.7104  162.3312 C.ar    1  UNL1        0.1421
     13 C         138.2520  141.3373  161.0347 C.3     1  UNL1        0.0740
     14 O         138.8494  141.4238  163.6387 O.2     1  UNL1       -0.4391
     15 C         140.1431  141.2509  168.9989 C.ar    1  UNL1        0.1387
     16 C         139.3999  140.0076  168.6092 C.ar    1  UNL1        0.0371
     17 C         139.1105  139.7288  167.1641 C.ar    1  UNL1        0.0078
     18 C         139.5641  140.6932  166.1086 C.ar    1  UNL1        0.0537
     19 C         140.3073  141.9365  166.4983 C.ar    1  UNL1        0.0078
     20 C         140.5967  142.2154  167.9435 C.ar    1  UNL1        0.0371
     21 C         141.8262  141.3682  170.9745 C.3     1  UNL1        0.2525
     22 O         140.4325  141.5298  170.4440 O.3     1  UNL1       -0.4714
     23 C         143.9205  141.4365  159.7530 C.3     1  UNL1        0.1239
     24 N         143.5971  142.7250  160.4496 N.am    1  UNL1       -0.2363
     25 C         142.4179  143.5404  160.0088 C.2     1  UNL1        0.4100
     26 O         141.5619  143.0674  158.8714 O.2     1  UNL1       -0.2258
     27 C         144.4531  143.1980  161.5870 C.3     1  UNL1        0.1388
     28 C         144.6977  142.3019  162.7647 C.2     1  UNL1        0.0706
     29 O         143.5846  142.0051  163.7253 O.co2   1  UNL1       -0.5474
     30 O         146.0555  141.7024  162.9817 O.co2   1  UNL1       -0.5474
     31 O         142.0945  144.8289  160.7053 O.3     1  UNL1       -0.4101
     32 C         141.1584  144.8335  161.8775 C.ar    1  UNL1        0.1500
     33 C         139.6756  144.8088  161.6532 C.ar    1  UNL1        0.0373
     34 C         138.7396  144.8135  162.8253 C.ar    1  UNL1       -0.0011
     35 C         139.2864  144.8428  164.2217 C.ar    1  UNL1       -0.0217
     36 C         138.3504  144.8474  165.3938 C.3     1  UNL1        0.0310
     37 C         140.7693  144.8675  164.4460 C.ar    1  UNL1       -0.0011
     38 C         141.7054  144.8628  163.2739 C.ar    1  UNL1        0.0373
@<TRIPOS>UNITY_ATOM_ATTR
29 1
charge -1
@<TRIPOS>BOND
     1    21    22    1
     2    22    15    1
     3    15    16   ar
     4    16    17   ar
     5    17    18   ar
     6    18     9    1
     7     9    10   ar
     8    10    11   ar
     9    11     8    1
    10     8     7    1
    11     7     1    1
    12     1     2   ar
    13     2     3   ar
    14     3     4   ar
    15     4     5   ar
    16     5    23    1
    17    23    24    1
    18    24    27    1
    19    27    28    1
    20    28    29   ar
    21    28    30   ar
    22    24    25   am
    23    25    26    2
    24    25    31    1
    25    31    32    1
    26    32    33   ar
    27    33    34   ar
    28    34    35   ar
    29    35    36    1
    30    35    37   ar
    31    37    38   ar
    32     5     6   ar
    33    11    12   ar
    34    12    13    1
    35    12    14   ar
    36    18    19   ar
    37    19    20   ar
    38    20    15   ar
    39    14     9   ar
    40     6     1   ar
    41    38    32   ar
@<TRIPOS>MOLECULE
*****
 38 41 0 0 0
SMALL
GASTEIGER

@<TRIPOS>ATOM
      1 C         141.2508  145.0043  162.2969 C.ar    1  UNL1        0.1389
      2 C         142.1025  145.5729  163.3932 C.ar    1  UNL1        0.0369
      3 C         143.4821  145.0328  163.6277 C.ar    1  UNL1        0.0028
      4 C         144.0101  143.9242  162.7662 C.ar    1  UNL1       -0.0024
      5 C         143.1584  143.3558  161.6700 C.ar    1  UNL1        0.0008
      6 C         141.7788  143.8958  161.4354 C.ar    1  UNL1        0.0343
      7 O         139.8713  145.5444  162.0624 O.3     1  UNL1       -0.4689
      8 C         138.6965  144.9323  162.7662 C.3     1  UNL1        0.2537
      9 C         139.4861  142.2535  165.4617 C.ar    1  UNL1        0.2290
     10 N         139.4997  143.6754  164.9843 N.ar    1  UNL1       -0.2093
     11 C         138.8848  143.7111  163.6166 C.ar    1  UNL1        0.1359
     12 C         138.4912  142.3112  163.2487 C.ar    1  UNL1        0.1421
     13 C         137.8402  141.8867  161.9657 C.3     1  UNL1        0.0740
     14 O         138.8628  141.4104  164.3890 O.2     1  UNL1       -0.4391
     15 C         141.0421  140.7764  169.4174 C.ar    1  UNL1        0.1387
     16 C         140.3331  139.8335  168.4910 C.ar    1  UNL1        0.0371
     17 C         139.8144  140.3259  167.1724 C.ar    1  UNL1        0.0078
     18 C         140.0048  141.7611  166.7803 C.ar    1  UNL1        0.0537
     19 C         140.7138  142.7040  167.7067 C.ar    1  UNL1        0.0078
     20 C         141.2324  142.2116  169.0252 C.ar    1  UNL1        0.0371
     21 C         142.9957  139.8680  170.8693 C.3     1  UNL1        0.2525
     22 O         141.5608  140.2840  170.7359 O.3     1  UNL1       -0.4714
     23 C         143.6864  142.2472  160.8084 C.3     1  UNL1        0.1239
     24 N         143.4719  140.8180  161.2101 N.am    1  UNL1       -0.2363
     25 C         142.2673  140.0729  160.7163 C.2     1  UNL1        0.4100
     26 O         141.2773  140.7570  159.8208 O.2     1  UNL1       -0.2258
     27 C         144.4619  140.1339  162.1056 C.3     1  UNL1        0.1388
     28 C         144.2506  140.1275  163.5905 C.2     1  UNL1        0.0706
     29 O         145.2004  139.3815  164.4801 O.co2   1  UNL1       -0.5474
     30 O         143.0895  140.8672  164.1860 O.co2   1  UNL1       -0.5474
     31 O         142.0528  138.6437  161.1179 O.3     1  UNL1       -0.4101
     32 C         141.1365  138.3148  162.2592 C.ar    1  UNL1        0.1500
     33 C         141.6892  137.7039  163.5126 C.ar    1  UNL1        0.0373
     34 C         140.7731  137.3749  164.6538 C.ar    1  UNL1       -0.0011
     35 C         139.3042  137.6568  164.5416 C.ar    1  UNL1       -0.0217
     36 C         138.3880  137.3279  165.6828 C.3     1  UNL1        0.0310
     37 C         138.7514  138.2678  163.2881 C.ar    1  UNL1       -0.0011
     38 C         139.6675  138.5967  162.1469 C.ar    1  UNL1        0.0373
@<TRIPOS>UNITY_ATOM_ATTR
29 1
charge -1
@<TRIPOS>BOND
     1    21    22    1
     2    22    15    1
     3    15    16   ar
     4    16    17   ar
     5    17    18   ar
     6    18     9    1
     7     9    10   ar
     8    10    11   ar
     9    11     8    1
    10     8     7    1
    11     7     1    1
    12     1     2   ar
    13     2     3   ar
    14     3     4   ar
    15     4     5   ar
    16     5    23    1
    17    23    24    1
    18    24    27    1
    19    27    28    1
    20    28    29   ar
    21    28    30   ar
    22    24    25   am
    23    25    26    2
    24    25    31    1
    25    31    32    1
    26    32    33   ar
    27    33    34   ar
    28    34    35   ar
    29    35    36    1
    30    35    37   ar
    31    37    38   ar
    32     5     6   ar
    33    11    12   ar
    34    12    13    1
    35    12    14   ar
    36    18    19   ar
    37    19    20   ar
    38    20    15   ar
    39    14     9   ar
    40     6     1   ar
    41    38    32   ar
@<TRIPOS>MOLECULE
*****
 38 41 0 0 0
SMALL
GASTEIGER

@<TRIPOS>ATOM
      1 C         140.5643  144.5001  161.0320 C.ar    1  UNL1        0.1389
      2 C         140.0339  145.3608  162.1403 C.ar    1  UNL1        0.0369
      3 C         140.9202  145.7302  163.2927 C.ar    1  UNL1        0.0028
      4 C         142.3368  145.2390  163.3369 C.ar    1  UNL1       -0.0024
      5 C         142.8671  144.3784  162.2287 C.ar    1  UNL1        0.0008
      6 C         141.9808  144.0089  161.0762 C.ar    1  UNL1        0.0343
      7 O         139.6780  144.1307  159.8796 O.3     1  UNL1       -0.4689
      8 C         138.6682  143.0321  160.0322 C.3     1  UNL1        0.2537
      9 C         139.0926  140.7693  163.1572 C.ar    1  UNL1        0.2290
     10 N         138.8037  142.1032  162.5350 N.ar    1  UNL1       -0.2093
     11 C         138.8869  141.9478  161.0454 C.ar    1  UNL1        0.1359
     12 C         139.2274  140.5178  160.7469 C.ar    1  UNL1        0.1421
     13 C         139.4088  139.9209  159.3828 C.3     1  UNL1        0.0740
     14 O         139.3545  139.7894  162.0520 O.2     1  UNL1       -0.4391
     15 C         139.1617  139.8656  167.5649 C.ar    1  UNL1        0.1387
     16 C         140.0447  140.9417  167.0060 C.ar    1  UNL1        0.0371
     17 C         140.0217  141.2429  165.5367 C.ar    1  UNL1        0.0078
     18 C         139.1157  140.4681  164.6264 C.ar    1  UNL1        0.0537
     19 C         138.2327  139.3920  165.1853 C.ar    1  UNL1        0.0078
     20 C         138.2557  139.0908  166.6546 C.ar    1  UNL1        0.0371
     21 C         139.3650  140.6761  170.0250 C.3     1  UNL1        0.2525
     22 O         139.1848  139.5644  169.0342 O.3     1  UNL1       -0.4714
     23 C         144.2837  143.8872  162.2729 C.3     1  UNL1        0.1239
     24 N         144.5903  142.5318  162.8376 N.am    1  UNL1       -0.2363
     25 C         144.3832  141.3055  161.9990 C.2     1  UNL1        0.4100
     26 O         143.8696  141.4346  160.5956 O.2     1  UNL1       -0.2258
     27 C         145.1040  142.4027  164.2410 C.3     1  UNL1        0.1388
     28 C         144.4527  143.1721  165.3517 C.2     1  UNL1        0.0706
     29 O         143.0455  142.8522  165.7610 O.co2   1  UNL1       -0.5474
     30 O         145.2086  144.2614  166.0532 O.co2   1  UNL1       -0.5474
     31 O         144.6898  139.9502  162.5637 O.3     1  UNL1       -0.4101
     32 C         143.5858  139.1049  163.1267 C.ar    1  UNL1        0.1500
     33 C         142.7127  138.3025  162.2082 C.ar    1  UNL1        0.0373
     34 C         141.6088  137.4573  162.7711 C.ar    1  UNL1       -0.0011
     35 C         141.3779  137.4144  164.2525 C.ar    1  UNL1       -0.0217
     36 C         140.2740  136.5692  164.8154 C.3     1  UNL1        0.0310
     37 C         142.2511  138.2168  165.1711 C.ar    1  UNL1       -0.0011
     38 C         143.3550  139.0620  164.6082 C.ar    1  UNL1        0.0373
@<TRIPOS>UNITY_ATOM_ATTR
29 1
charge -1
@<TRIPOS>BOND
     1    21    22    1
     2    22    15    1
     3    15    16   ar
     4    16    17   ar
     5    17    18   ar
     6    18     9    1
     7     9    10   ar
     8    10    11   ar
     9    11     8    1
    10     8     7    1
    11     7     1    1
    12     1     2   ar
    13     2     3   ar
    14     3     4   ar
    15     4     5   ar
    16     5    23    1
    17    23    24    1
    18    24    27    1
    19    27    28    1
    20    28    29   ar
    21    28    30   ar
    22    24    25   am
    23    25    26    2
    24    25    31    1
    25    31    32    1
    26    32    33   ar
    27    33    34   ar
    28    34    35   ar
    29    35    36    1
    30    35    37   ar
    31    37    38   ar
    32     5     6   ar
    33    11    12   ar
    34    12    13    1
    35    12    14   ar
    36    18    19   ar
    37    19    20   ar
    38    20    15   ar
    39    14     9   ar
    40     6     1   ar
    41    38    32   ar
@<TRIPOS>MOLECULE
*****
 38 41 0 0 0
SMALL
GASTEIGER

@<TRIPOS>ATOM
      1 C         138.1824  143.1220  162.1578 C.ar    1  UNL1        0.1389
      2 C         138.1221  144.4746  162.8038 C.ar    1  UNL1        0.0369
      3 C         139.1948  145.4860  162.5277 C.ar    1  UNL1        0.0028
      4 C         140.3277  145.1451  161.6057 C.ar    1  UNL1       -0.0024
      5 C         140.3880  143.7927  160.9597 C.ar    1  UNL1        0.0008
      6 C         139.3153  142.7811  161.2358 C.ar    1  UNL1        0.0343
      7 O         137.1097  142.1105  162.4339 O.3     1  UNL1       -0.4689
      8 C         137.4616  140.6571  162.5507 C.3     1  UNL1        0.2537
      9 C         139.6609  140.1453  165.7077 C.ar    1  UNL1        0.2290
     10 N         138.8237  141.0196  164.8219 N.ar    1  UNL1       -0.2093
     11 C         138.3332  140.1846  163.6764 C.ar    1  UNL1        0.1359
     12 C         138.8673  138.7943  163.8542 C.ar    1  UNL1        0.1421
     13 C         138.6236  137.6322  162.9375 C.3     1  UNL1        0.0740
     14 O         139.6879  138.7700  165.1096 O.2     1  UNL1       -0.4391
     15 C         141.7288  141.4239  169.4944 C.ar    1  UNL1        0.1387
     16 C         142.2902  141.8227  168.1619 C.ar    1  UNL1        0.0371
     17 C         141.6009  141.3965  166.8996 C.ar    1  UNL1        0.0078
     18 C         140.3502  140.5715  166.9699 C.ar    1  UNL1        0.0537
     19 C         139.7888  140.1726  168.3024 C.ar    1  UNL1        0.0078
     20 C         140.4781  140.5988  169.5647 C.ar    1  UNL1        0.0371
     21 C         143.0996  143.1845  170.8252 C.3     1  UNL1        0.2525
     22 O         142.4181  141.8500  170.7566 O.3     1  UNL1       -0.4714
     23 C         141.5210  143.4517  160.0377 C.3     1  UNL1        0.1239
     24 N         142.6518  142.5945  160.5240 N.am    1  UNL1       -0.2363
     25 C         142.5983  141.1069  160.3394 C.2     1  UNL1        0.4100
     26 O         141.4140  140.4765  159.6685 O.2     1  UNL1       -0.2258
     27 C         143.8361  143.2249  161.1948 C.3     1  UNL1        0.1388
     28 C         143.6838  143.8571  162.5465 C.2     1  UNL1        0.0706
     29 O         144.1478  145.2655  162.7723 O.co2   1  UNL1       -0.5474
     30 O         143.0674  143.0808  163.6723 O.co2   1  UNL1       -0.5474
     31 O         143.7290  140.2496  160.8256 O.3     1  UNL1       -0.4101
     32 C         143.7359  139.7482  162.2394 C.ar    1  UNL1        0.1500
     33 C         142.6303  138.8583  162.7248 C.ar    1  UNL1        0.0373
     34 C         142.6372  138.3569  164.1385 C.ar    1  UNL1       -0.0011
     35 C         143.7496  138.7452  165.0667 C.ar    1  UNL1       -0.0217
     36 C         143.7565  138.2437  166.4803 C.3     1  UNL1        0.0310
     37 C         144.8553  139.6351  164.5812 C.ar    1  UNL1       -0.0011
     38 C         144.8484  140.1366  163.1675 C.ar    1  UNL1        0.0373
@<TRIPOS>UNITY_ATOM_ATTR
29 1
charge -1
@<TRIPOS>BOND
     1    21    22    1
     2    22    15    1
     3    15    16   ar
     4    16    17   ar
     5    17    18   ar
     6    18     9    1
     7     9    10   ar
     8    10    11   ar
     9    11     8    1
    10     8     7    1
    11     7     1    1
    12     1     2   ar
    13     2     3   ar
    14     3     4   ar
    15     4     5   ar
    16     5    23    1
    17    23    24    1
    18    24    27    1
    19    27    28    1
    20    28    29   ar
    21    28    30   ar
    22    24    25   am
    23    25    26    2
    24    25    31    1
    25    31    32    1
    26    32    33   ar
    27    33    34   ar
    28    34    35   ar
    29    35    36    1
    30    35    37   ar
    31    37    38   ar
    32     5     6   ar
    33    11    12   ar
    34    12    13    1
    35    12    14   ar
    36    18    19   ar
    37    19    20   ar
    38    20    15   ar
    39    14     9   ar
    40     6     1   ar
    41    38    32   ar
@<TRIPOS>MOLECULE
*****
 38 41 0 0 0
SMALL
GASTEIGER

@<TRIPOS>ATOM
      1 C         143.9466  143.6867  162.3939 C.ar    1  UNL1        0.1389
      2 C         144.0757  144.6032  163.5745 C.ar    1  UNL1        0.0369
      3 C         142.9427  145.5139  163.9443 C.ar    1  UNL1        0.0028
      4 C         141.6805  145.5081  163.1337 C.ar    1  UNL1       -0.0024
      5 C         141.5515  144.5917  161.9533 C.ar    1  UNL1        0.0008
      6 C         142.6846  143.6810  161.5834 C.ar    1  UNL1        0.0343
      7 O         145.0797  142.7761  162.0241 O.3     1  UNL1       -0.4689
      8 C         145.1418  141.3882  162.5898 C.3     1  UNL1        0.2537
      9 C         142.4167  140.6596  165.2560 C.ar    1  UNL1        0.2290
     10 N         143.5490  141.4934  164.7339 N.ar    1  UNL1       -0.2093
     11 C         144.0242  140.8787  163.4508 C.ar    1  UNL1        0.1359
     12 C         143.1856  139.6649  163.1799 C.ar    1  UNL1        0.1421
     13 C         143.3172  138.7475  162.0005 C.3     1  UNL1        0.0740
     14 O         142.1921  139.5295  164.2956 O.2     1  UNL1       -0.4391
     15 C         140.1004  141.4157  169.0393 C.ar    1  UNL1        0.1387
     16 C         140.5703  140.0294  168.7119 C.ar    1  UNL1        0.0371
     17 C         141.3424  139.7773  167.4508 C.ar    1  UNL1        0.0078
     18 C         141.6446  140.9116  166.5171 C.ar    1  UNL1        0.0537
     19 C         141.1748  142.2980  166.8444 C.ar    1  UNL1        0.0078
     20 C         140.4027  142.5500  168.1055 C.ar    1  UNL1        0.0371
     21 C         139.5105  142.9562  171.0465 C.3     1  UNL1        0.2525
     22 O         139.3283  141.6678  170.3004 O.3     1  UNL1       -0.4714
     23 C         140.2894  144.5859  161.1427 C.3     1  UNL1        0.1239
     24 N         139.3488  143.4206  161.2276 N.am    1  UNL1       -0.2363
     25 C         138.3260  143.3606  162.3231 C.2     1  UNL1        0.4100
     26 O         138.2438  144.4660  163.3338 O.2     1  UNL1       -0.2258
     27 C         139.4310  142.3152  160.2169 C.3     1  UNL1        0.1388
     28 C         139.1976  142.6081  158.7645 C.2     1  UNL1        0.0706
     29 O         137.8064  142.8623  158.2648 O.co2   1  UNL1       -0.5474
     30 O         140.3555  142.6468  157.8118 O.co2   1  UNL1       -0.5474
     31 O         137.3854  142.1953  162.4081 O.3     1  UNL1       -0.4101
     32 C         137.7834  140.9638  163.1665 C.ar    1  UNL1        0.1500
     33 C         138.0731  139.6900  162.4293 C.ar    1  UNL1        0.0373
     34 C         138.4711  138.4585  163.1876 C.ar    1  UNL1       -0.0011
     35 C         138.5795  138.5008  164.6830 C.ar    1  UNL1       -0.0217
     36 C         138.9775  137.2694  165.4413 C.3     1  UNL1        0.0310
     37 C         138.2898  139.7747  165.4202 C.ar    1  UNL1       -0.0011
     38 C         137.8918  141.0062  164.6619 C.ar    1  UNL1        0.0373
@<TRIPOS>UNITY_ATOM_ATTR
29 1
charge -1
@<TRIPOS>BOND
     1    21    22    1
     2    22    15    1
     3    15    16   ar
     4    16    17   ar
     5    17    18   ar
     6    18     9    1
     7     9    10   ar
     8    10    11   ar
     9    11     8    1
    10     8     7    1
    11     7     1    1
    12     1     2   ar
    13     2     3   ar
    14     3     4   ar
    15     4     5   ar
    16     5    23    1
    17    23    24    1
    18    24    27    1
    19    27    28    1
    20    28    29   ar
    21    28    30   ar
    22    24    25   am
    23    25    26    2
    24    25    31    1
    25    31    32    1
    26    32    33   ar
    27    33    34   ar
    28    34    35   ar
    29    35    36    1
    30    35    37   ar
    31    37    38   ar
    32     5     6   ar
    33    11    12   ar
    34    12    13    1
    35    12    14   ar
    36    18    19   ar
    37    19    20   ar
    38    20    15   ar
    39    14     9   ar
    40     6     1   ar
    41    38    32   ar
@<TRIPOS>MOLECULE
*****
 38 41 0 0 0
SMALL
GASTEIGER

@<TRIPOS>ATOM
      1 C         143.6093  140.3499  160.3627 C.ar    1  UNL1        0.1389
      2 C         144.4295  139.2469  160.9635 C.ar    1  UNL1        0.0369
      3 C         143.8130  137.9013  161.2070 C.ar    1  UNL1        0.0028
      4 C         142.3765  137.6586  160.8498 C.ar    1  UNL1       -0.0024
      5 C         141.5564  138.7616  160.2491 C.ar    1  UNL1        0.0008
      6 C         142.1729  140.1073  160.0055 C.ar    1  UNL1        0.0343
      7 O         144.2257  141.6955  160.1192 O.3     1  UNL1       -0.4689
      8 C         144.4330  142.6436  161.2629 C.3     1  UNL1        0.2537
      9 C         142.3744  142.1861  164.5215 C.ar    1  UNL1        0.2290
     10 N         143.5537  141.8478  163.6585 N.ar    1  UNL1       -0.2093
     11 C         143.4602  142.6656  162.4045 C.ar    1  UNL1        0.1359
     12 C         142.2231  143.5094  162.4925 C.ar    1  UNL1        0.1421
     13 C         141.7416  144.4792  161.4544 C.3     1  UNL1        0.0740
     14 O         141.5521  143.2130  163.8009 O.2     1  UNL1       -0.4391
     15 C         141.4634  140.4289  168.5628 C.ar    1  UNL1        0.1387
     16 C         140.8059  141.7076  168.1355 C.ar    1  UNL1        0.0371
     17 C         141.1096  142.2933  166.7884 C.ar    1  UNL1        0.0078
     18 C         142.0707  141.6004  165.8686 C.ar    1  UNL1        0.0537
     19 C         142.7282  140.3217  166.2959 C.ar    1  UNL1        0.0078
     20 C         142.4245  139.7359  167.6430 C.ar    1  UNL1        0.0371
     21 C         140.7441  140.7374  171.0402 C.3     1  UNL1        0.2525
     22 O         141.1598  139.8431  169.9099 O.3     1  UNL1       -0.4714
     23 C         140.1199  138.5190  159.8919 C.3     1  UNL1        0.1239
     24 N         139.0281  139.0486  160.7736 N.am    1  UNL1       -0.2363
     25 C         138.4116  140.3849  160.4835 C.2     1  UNL1        0.4100
     26 O         138.8871  141.1916  159.3116 O.2     1  UNL1       -0.2258
     27 C         138.5526  138.2418  161.9454 C.3     1  UNL1        0.1388
     28 C         139.2361  138.3744  163.2740 C.2     1  UNL1        0.0706
     29 O         140.3894  139.3202  163.4330 O.co2   1  UNL1       -0.5474
     30 O         138.7663  137.5612  164.4436 O.co2   1  UNL1       -0.5474
     31 O         137.3198  140.9145  161.3651 O.3     1  UNL1       -0.4101
     32 C         137.6356  141.9320  162.4211 C.ar    1  UNL1        0.1500
     33 C         137.9392  143.3481  162.0312 C.ar    1  UNL1        0.0373
     34 C         138.2550  144.3655  163.0872 C.ar    1  UNL1       -0.0011
     35 C         138.2672  143.9668  164.5331 C.ar    1  UNL1       -0.0217
     36 C         138.5830  144.9842  165.5891 C.3     1  UNL1        0.0310
     37 C         137.9636  142.5505  164.9231 C.ar    1  UNL1       -0.0011
     38 C         137.6478  141.5331  163.8671 C.ar    1  UNL1        0.0373
@<TRIPOS>UNITY_ATOM_ATTR
29 1
charge -1
@<TRIPOS>BOND
     1    21    22    1
     2    22    15    1
     3    15    16   ar
     4    16    17   ar
     5    17    18   ar
     6    18     9    1
     7     9    10   ar
     8    10    11   ar
     9    11     8    1
    10     8     7    1
    11     7     1    1
    12     1     2   ar
    13     2     3   ar
    14     3     4   ar
    15     4     5   ar
    16     5    23    1
    17    23    24    1
    18    24    27    1
    19    27    28    1
    20    28    29   ar
    21    28    30   ar
    22    24    25   am
    23    25    26    2
    24    25    31    1
    25    31    32    1
    26    32    33   ar
    27    33    34   ar
    28    34    35   ar
    29    35    36    1
    30    35    37   ar
    31    37    38   ar
    32     5     6   ar
    33    11    12   ar
    34    12    13    1
    35    12    14   ar
    36    18    19   ar
    37    19    20   ar
    38    20    15   ar
    39    14     9   ar
    40     6     1   ar
    41    38    32   ar
@<TRIPOS>MOLECULE
*****
 38 41 0 0 0
SMALL
GASTEIGER

@<TRIPOS>ATOM
      1 C         137.8378  142.8212  162.9670 C.ar    1  UNL1        0.1389
      2 C         137.4265  143.1859  164.3628 C.ar    1  UNL1        0.0369
      3 C         138.1285  144.2973  165.0852 C.ar    1  UNL1        0.0028
      4 C         139.2418  145.0440  164.4120 C.ar    1  UNL1       -0.0024
      5 C         139.6530  144.6793  163.0163 C.ar    1  UNL1        0.0008
      6 C         138.9510  143.5678  162.2938 C.ar    1  UNL1        0.0343
      7 O         137.1358  141.7098  162.2446 O.3     1  UNL1       -0.4689
      8 C         137.8791  140.4542  161.8967 C.3     1  UNL1        0.2537
      9 C         140.2510  139.5188  164.8232 C.ar    1  UNL1        0.2290
     10 N         139.0958  140.3007  164.2718 N.ar    1  UNL1       -0.2093
     11 C         138.9192  139.9145  162.8331 C.ar    1  UNL1        0.1359
     12 C         139.9653  138.8939  162.4954 C.ar    1  UNL1        0.1421
     13 C         140.1549  138.2338  161.1619 C.3     1  UNL1        0.0740
     14 O         140.7884  138.6494  163.7253 O.2     1  UNL1       -0.4391
     15 C         141.8278  139.7421  169.0320 C.ar    1  UNL1        0.1387
     16 C         140.3902  140.0653  168.7515 C.ar    1  UNL1        0.0371
     17 C         139.8646  139.9909  167.3486 C.ar    1  UNL1        0.0078
     18 C         140.7766  139.5932  166.2261 C.ar    1  UNL1        0.0537
     19 C         142.2142  139.2700  166.5066 C.ar    1  UNL1        0.0078
     20 C         142.7398  139.3444  167.9095 C.ar    1  UNL1        0.0371
     21 C         141.9851  140.9752  171.3133 C.3     1  UNL1        0.2525
     22 O         142.3534  139.8165  170.4349 O.3     1  UNL1       -0.4714
     23 C         140.7662  145.4259  162.3431 C.3     1  UNL1        0.1239
     24 N         141.8986  144.6733  161.7097 N.am    1  UNL1       -0.2363
     25 C         143.0988  144.2967  162.5268 C.2     1  UNL1        0.4100
     26 O         143.1666  144.6727  163.9774 O.2     1  UNL1       -0.2258
     27 C         141.8308  144.2972  160.2592 C.3     1  UNL1        0.1388
     28 C         141.2744  145.2661  159.2585 C.2     1  UNL1        0.0706
     29 O         139.7992  145.5338  159.2138 O.co2   1  UNL1       -0.5474
     30 O         142.1932  145.9674  158.3024 O.co2   1  UNL1       -0.5474
     31 O         144.2312  143.5440  161.8935 O.3     1  UNL1       -0.4101
     32 C         144.1508  142.0536  161.7446 C.ar    1  UNL1        0.1500
     33 C         144.2379  141.1731  162.9558 C.ar    1  UNL1        0.0373
     34 C         144.1576  139.6827  162.8069 C.ar    1  UNL1       -0.0011
     35 C         143.9901  139.0727  161.4468 C.ar    1  UNL1       -0.0217
     36 C         143.9097  137.5823  161.2979 C.3     1  UNL1        0.0310
     37 C         143.9030  139.9533  160.2356 C.ar    1  UNL1       -0.0011
     38 C         143.9833  141.4437  160.3845 C.ar    1  UNL1        0.0373
@<TRIPOS>UNITY_ATOM_ATTR
29 1
charge -1
@<TRIPOS>BOND
     1    21    22    1
     2    22    15    1
     3    15    16   ar
     4    16    17   ar
     5    17    18   ar
     6    18     9    1
     7     9    10   ar
     8    10    11   ar
     9    11     8    1
    10     8     7    1
    11     7     1    1
    12     1     2   ar
    13     2     3   ar
    14     3     4   ar
    15     4     5   ar
    16     5    23    1
    17    23    24    1
    18    24    27    1
    19    27    28    1
    20    28    29   ar
    21    28    30   ar
    22    24    25   am
    23    25    26    2
    24    25    31    1
    25    31    32    1
    26    32    33   ar
    27    33    34   ar
    28    34    35   ar
    29    35    36    1
    30    35    37   ar
    31    37    38   ar
    32     5     6   ar
    33    11    12   ar
    34    12    13    1
    35    12    14   ar
    36    18    19   ar
    37    19    20   ar
    38    20    15   ar
    39    14     9   ar
    40     6     1   ar
    41    38    32   ar
@<TRIPOS>MOLECULE
*****
 38 41 0 0 0
SMALL
GASTEIGER

@<TRIPOS>ATOM
      1 C         142.6742  143.5457  159.8251 C.ar    1  UNL1        0.1389
      2 C         142.3336  144.0161  158.4420 C.ar    1  UNL1        0.0369
      3 C         141.1424  144.9010  158.2230 C.ar    1  UNL1        0.0028
      4 C         140.2918  145.3156  159.3869 C.ar    1  UNL1       -0.0024
      5 C         140.6325  144.8452  160.7699 C.ar    1  UNL1        0.0008
      6 C         141.8237  143.9602  160.9890 C.ar    1  UNL1        0.0343
      7 O         143.8654  142.6608  160.0441 O.3     1  UNL1       -0.4689
      8 C         144.5854  142.6844  161.3598 C.3     1  UNL1        0.2537
      9 C         143.5462  140.8478  164.6175 C.ar    1  UNL1        0.2290
     10 N         143.9137  142.1015  163.8806 N.ar    1  UNL1       -0.2093
     11 C         144.1847  141.7365  162.4511 C.ar    1  UNL1        0.1359
     12 C         143.9847  140.2571  162.3046 C.ar    1  UNL1        0.1421
     13 C         144.1503  139.4659  161.0411 C.3     1  UNL1        0.0740
     14 O         143.5901  139.7079  163.6435 O.2     1  UNL1       -0.4391
     15 C         142.4964  140.5573  168.9837 C.ar    1  UNL1        0.1387
     16 C         142.7358  141.8991  168.3575 C.ar    1  UNL1        0.0371
     17 C         143.0857  141.9959  166.9021 C.ar    1  UNL1        0.0078
     18 C         143.1962  140.7509  166.0729 C.ar    1  UNL1        0.0537
     19 C         142.9568  139.4091  166.6990 C.ar    1  UNL1        0.0078
     20 C         142.6069  139.3123  168.1544 C.ar    1  UNL1        0.0371
     21 C         141.4290  141.5912  171.1148 C.3     1  UNL1        0.2525
     22 O         142.1464  140.4604  170.4391 O.3     1  UNL1       -0.4714
     23 C         139.7819  145.2597  161.9338 C.3     1  UNL1        0.1239
     24 N         139.4573  144.2719  163.0150 N.am    1  UNL1       -0.2363
     25 C         138.3725  143.2578  162.8032 C.2     1  UNL1        0.4100
     26 O         137.6124  143.2315  161.5103 O.2     1  UNL1       -0.2258
     27 C         140.2174  144.2982  164.3079 C.3     1  UNL1        0.1388
     28 C         139.4776  144.3426  165.6119 C.2     1  UNL1        0.0706
     29 O         139.8117  143.3629  166.6975 O.co2   1  UNL1       -0.5474
     30 O         138.4036  145.3667  165.8305 O.co2   1  UNL1       -0.5474
     31 O         138.0478  142.2700  163.8842 O.3     1  UNL1       -0.4101
     32 C         138.8175  140.9863  163.9832 C.ar    1  UNL1        0.1500
     33 C         138.8338  140.2191  165.2719 C.ar    1  UNL1        0.0373
     34 C         139.6034  138.9354  165.3709 C.ar    1  UNL1       -0.0011
     35 C         140.3567  138.4189  164.1811 C.ar    1  UNL1       -0.0217
     36 C         141.1263  137.1352  164.2800 C.3     1  UNL1        0.0310
     37 C         140.3403  139.1861  162.8922 C.ar    1  UNL1       -0.0011
     38 C         139.5707  140.4698  162.7933 C.ar    1  UNL1        0.0373
@<TRIPOS>UNITY_ATOM_ATTR
29 1
charge -1
@<TRIPOS>BOND
     1    21    22    1
     2    22    15    1
     3    15    16   ar
     4    16    17   ar
     5    17    18   ar
     6    18     9    1
     7     9    10   ar
     8    10    11   ar
     9    11     8    1
    10     8     7    1
    11     7     1    1
    12     1     2   ar
    13     2     3   ar
    14     3     4   ar
    15     4     5   ar
    16     5    23    1
    17    23    24    1
    18    24    27    1
    19    27    28    1
    20    28    29   ar
    21    28    30   ar
    22    24    25   am
    23    25    26    2
    24    25    31    1
    25    31    32    1
    26    32    33   ar
    27    33    34   ar
    28    34    35   ar
    29    35    36    1
    30    35    37   ar
    31    37    38   ar
    32     5     6   ar
    33    11    12   ar
    34    12    13    1
    35    12    14   ar
    36    18    19   ar
    37    19    20   ar
    38    20    15   ar
    39    14     9   ar
    40     6     1   ar
    41    38    32   ar
@<TRIPOS>MOLECULE
*****
 38 41 0 0 0
SMALL
GASTEIGER

@<TRIPOS>ATOM
      1 C         139.0790  142.5246  159.4328 C.ar    1  UNL1        0.1389
      2 C         138.4097  142.7753  158.1139 C.ar    1  UNL1        0.0369
      3 C         139.1976  143.3373  156.9679 C.ar    1  UNL1        0.0028
      4 C         140.6547  143.6486  157.1407 C.ar    1  UNL1       -0.0024
      5 C         141.3240  143.3979  158.4595 C.ar    1  UNL1        0.0008
      6 C         140.5361  142.8359  159.6056 C.ar    1  UNL1        0.0343
      7 O         138.2911  141.9626  160.5788 O.3     1  UNL1       -0.4689
      8 C         137.9310  142.8382  161.7422 C.3     1  UNL1        0.2537
      9 C         140.4277  142.9038  164.7133 C.ar    1  UNL1        0.2290
     10 N         139.4006  142.1957  163.8805 N.ar    1  UNL1       -0.2093
     11 C         138.9508  143.1353  162.8012 C.ar    1  UNL1        0.1359
     12 C         139.7001  144.4242  162.9669 C.ar    1  UNL1        0.1421
     13 C         139.5610  145.6423  162.1027 C.3     1  UNL1        0.0740
     14 O         140.6128  144.2811  164.1486 O.2     1  UNL1       -0.4391
     15 C         142.5766  141.1962  168.2793 C.ar    1  UNL1        0.1387
     16 C         141.1197  140.9061  168.0719 C.ar    1  UNL1        0.0371
     17 C         140.4034  141.4753  166.8832 C.ar    1  UNL1        0.0078
     18 C         141.1440  142.3346  165.9019 C.ar    1  UNL1        0.0537
     19 C         142.6010  142.6247  166.1093 C.ar    1  UNL1        0.0078
     20 C         143.3173  142.0555  167.2980 C.ar    1  UNL1        0.0371
     21 C         142.5108  140.1246  170.6451 C.3     1  UNL1        0.2525
     22 O         143.2929  140.6270  169.4679 O.3     1  UNL1       -0.4714
     23 C         142.7811  143.7092  158.6322 C.3     1  UNL1        0.1239
     24 N         143.6714  142.7494  159.3644 N.am    1  UNL1       -0.2363
     25 C         143.9903  142.9776  160.8122 C.2     1  UNL1        0.4100
     26 O         143.4188  144.1655  161.5279 O.2     1  UNL1       -0.2258
     27 C         144.2429  141.5614  158.6487 C.3     1  UNL1        0.1388
     28 C         143.5367  140.2395  158.7073 C.2     1  UNL1        0.0706
     29 O         142.3123  140.0056  157.8730 O.co2   1  UNL1       -0.5474
     30 O         144.0548  139.1513  159.6004 O.co2   1  UNL1       -0.5474
     31 O         144.8805  142.0178  161.5445 O.3     1  UNL1       -0.4101
     32 C         144.3023  141.0987  162.5794 C.ar    1  UNL1        0.1500
     33 C         142.8520  140.7209  162.5205 C.ar    1  UNL1        0.0373
     34 C         142.2737  139.8018  163.5553 C.ar    1  UNL1       -0.0011
     35 C         143.1458  139.2605  164.6490 C.ar    1  UNL1       -0.0217
     36 C         142.5676  138.3414  165.6838 C.3     1  UNL1        0.0310
     37 C         144.5963  139.6383  164.7079 C.ar    1  UNL1       -0.0011
     38 C         145.1745  140.5574  163.6731 C.ar    1  UNL1        0.0373
@<TRIPOS>UNITY_ATOM_ATTR
29 1
charge -1
@<TRIPOS>BOND
     1    21    22    1
     2    22    15    1
     3    15    16   ar
     4    16    17   ar
     5    17    18   ar
     6    18     9    1
     7     9    10   ar
     8    10    11   ar
     9    11     8    1
    10     8     7    1
    11     7     1    1
    12     1     2   ar
    13     2     3   ar
    14     3     4   ar
    15     4     5   ar
    16     5    23    1
    17    23    24    1
    18    24    27    1
    19    27    28    1
    20    28    29   ar
    21    28    30   ar
    22    24    25   am
    23    25    26    2
    24    25    31    1
    25    31    32    1
    26    32    33   ar
    27    33    34   ar
    28    34    35   ar
    29    35    36    1
    30    35    37   ar
    31    37    38   ar
    32     5     6   ar
    33    11    12   ar
    34    12    13    1
    35    12    14   ar
    36    18    19   ar
    37    19    20   ar
    38    20    15   ar
    39    14     9   ar
    40     6     1   ar
    41    38    32   ar
