@<TRIPOS>MOLECULE
*****
 22 23 0 0 0
SMALL
GASTEIGER

@<TRIPOS>ATOM
      1 C         141.5222  141.8001  166.6501 C.2     1  UNL1        0.2406
      2 O         140.7910  142.1649  165.3923 O.2     1  UNL1       -0.2733
      3 N         142.9340  141.2985  166.5782 N.am    1  UNL1       -0.2833
      4 H         143.4140  141.0591  167.4038 H       1  UNL1        0.1549
      5 C         143.6146  141.1617  165.2486 C.ar    1  UNL1        0.0423
      6 C         144.3874  142.3144  164.6794 C.ar    1  UNL1       -0.0087
      7 C         144.4796  143.6040  165.4399 C.3     1  UNL1        0.0323
      8 C         145.0680  142.1775  163.3496 C.ar    1  UNL1       -0.0031
      9 C         144.9757  140.8879  162.5892 C.ar    1  UNL1       -0.0006
     10 C         144.2029  139.7352  163.1583 C.ar    1  UNL1       -0.0031
     11 C         143.5224  139.8720  164.4880 C.ar    1  UNL1       -0.0087
     12 C         142.7496  138.7193  165.0572 C.3     1  UNL1        0.0323
     13 N         139.9842  140.8224  168.5017 N.3     1  UNL1       -0.2666
     14 C         139.3037  140.9593  169.8314 C.3     1  UNL1        0.0725
     15 C         139.4807  142.2107  170.6393 C.3     1  UNL1        0.0174
     16 C         140.3382  143.3253  170.1174 C.3     1  UNL1        0.0033
     17 C         141.0187  143.1884  168.7877 C.3     1  UNL1        0.0254
     18 C         140.8417  141.9370  167.9799 C.3     1  UNL1        0.1351
     19 C         139.8072  139.5710  167.6939 C.3     1  UNL1        0.0725
     20 C         138.5189  139.3239  166.9664 C.3     1  UNL1        0.0173
     21 C         138.9936  137.6405  165.0452 C.3     1  UNL1        0.0000
     22 C         138.5353  138.9933  165.5034 C.3     1  UNL1        0.0014
@<TRIPOS>BOND
     1    21    22    1
     2    22    20    1
     3    20    19    1
     4    19    13    1
     5    13    14    1
     6    14    15    1
     7    15    16    1
     8    16    17    1
     9    17    18    1
    10    18     1    1
    11     1     2    2
    12     1     3   am
    13     3     5    1
    14     5     6   ar
    15     6     7    1
    16     6     8   ar
    17     8     9   ar
    18     9    10   ar
    19    10    11   ar
    20    11    12    1
    21    18    13    1
    22    11     5   ar
    23     3     4    1
@<TRIPOS>MOLECULE
*****
 22 23 0 0 0
SMALL
GASTEIGER

@<TRIPOS>ATOM
      1 C         140.6458  142.4908  165.9348 C.2     1  UNL1        0.2406
      2 O         142.1107  142.7765  165.7851 O.2     1  UNL1       -0.2733
      3 N         140.1295  141.8604  167.1942 N.am    1  UNL1       -0.2833
      4 H         139.1680  141.6729  167.2925 H       1  UNL1        0.1549
      5 C         141.0780  141.5159  168.3039 C.ar    1  UNL1        0.0423
      6 C         141.2092  142.4268  169.4884 C.ar    1  UNL1       -0.0087
      7 C         140.3919  143.6823  169.5632 C.3     1  UNL1        0.0323
      8 C         142.1579  142.0821  170.5982 C.ar    1  UNL1       -0.0031
      9 C         142.9752  140.8266  170.5234 C.ar    1  UNL1       -0.0006
     10 C         142.8440  139.9157  169.3389 C.ar    1  UNL1       -0.0031
     11 C         141.8954  140.2603  168.2292 C.ar    1  UNL1       -0.0087
     12 C         141.7642  139.3494  167.0447 C.3     1  UNL1        0.0323
     13 N         139.3625  141.8129  163.7799 N.3     1  UNL1       -0.2666
     14 C         138.4139  142.1575  162.6703 C.3     1  UNL1        0.0725
     15 C         137.8000  143.5246  162.6058 C.3     1  UNL1        0.0174
     16 C         138.1348  144.5471  163.6509 C.3     1  UNL1        0.0033
     17 C         139.0833  144.2025  164.7606 C.3     1  UNL1        0.0254
     18 C         139.6972  142.8354  164.8251 C.3     1  UNL1        0.1351
     19 C         139.9763  140.4457  163.8445 C.3     1  UNL1        0.0725
     20 C         139.2085  139.3065  164.4464 C.3     1  UNL1        0.0173
     21 C         138.0503  138.8014  166.7166 C.3     1  UNL1        0.0000
     22 C         138.1142  139.5791  165.4355 C.3     1  UNL1        0.0014
@<TRIPOS>BOND
     1    21    22    1
     2    22    20    1
     3    20    19    1
     4    19    13    1
     5    13    14    1
     6    14    15    1
     7    15    16    1
     8    16    17    1
     9    17    18    1
    10    18     1    1
    11     1     2    2
    12     1     3   am
    13     3     5    1
    14     5     6   ar
    15     6     7    1
    16     6     8   ar
    17     8     9   ar
    18     9    10   ar
    19    10    11   ar
    20    11    12    1
    21    18    13    1
    22    11     5   ar
    23     3     4    1
@<TRIPOS>MOLECULE
*****
 22 23 0 0 0
SMALL
GASTEIGER

@<TRIPOS>ATOM
      1 C         140.6579  142.5005  165.9313 C.2     1  UNL1        0.2406
      2 O         142.1226  142.7880  165.7832 O.2     1  UNL1       -0.2733
      3 N         140.1404  141.8734  167.1918 N.am    1  UNL1       -0.2833
      4 H         139.1791  141.6847  167.2890 H       1  UNL1        0.1549
      5 C         141.0876  141.5340  168.3043 C.ar    1  UNL1        0.0423
      6 C         141.9119  140.2829  168.2319 C.ar    1  UNL1       -0.0087
      7 C         141.7891  139.3713  167.0471 C.3     1  UNL1        0.0323
      8 C         142.8591  139.9434  169.3444 C.ar    1  UNL1       -0.0031
      9 C         142.9820  140.8550  170.5292 C.ar    1  UNL1       -0.0006
     10 C         142.1576  142.1061  170.6016 C.ar    1  UNL1       -0.0031
     11 C         141.2105  142.4456  169.4892 C.ar    1  UNL1       -0.0087
     12 C         140.3861  143.6967  169.5615 C.3     1  UNL1        0.0323
     13 N         139.3686  141.8092  163.7842 N.3     1  UNL1       -0.2666
     14 C         138.4214  142.1487  162.6718 C.3     1  UNL1        0.0725
     15 C         137.8162  143.5190  162.5940 C.3     1  UNL1        0.0174
     16 C         138.1583  144.5498  163.6286 C.3     1  UNL1        0.0033
     17 C         139.1055  144.2103  164.7410 C.3     1  UNL1        0.0254
     18 C         139.7107  142.8400  164.8188 C.3     1  UNL1        0.1351
     19 C         139.9737  140.4388  163.8621 C.3     1  UNL1        0.0725
     20 C         139.1965  139.3092  164.4701 C.3     1  UNL1        0.0173
     21 C         138.0107  138.7626  166.7163 C.3     1  UNL1        0.0000
     22 C         138.1183  139.5950  165.4730 C.3     1  UNL1        0.0014
@<TRIPOS>BOND
     1    21    22    1
     2    22    20    1
     3    20    19    1
     4    19    13    1
     5    13    14    1
     6    14    15    1
     7    15    16    1
     8    16    17    1
     9    17    18    1
    10    18     1    1
    11     1     2    2
    12     1     3   am
    13     3     5    1
    14     5     6   ar
    15     6     7    1
    16     6     8   ar
    17     8     9   ar
    18     9    10   ar
    19    10    11   ar
    20    11    12    1
    21    18    13    1
    22    11     5   ar
    23     3     4    1
@<TRIPOS>MOLECULE
*****
 22 23 0 0 0
SMALL
GASTEIGER

@<TRIPOS>ATOM
      1 C         139.7277  139.8815  166.2833 C.2     1  UNL1        0.2406
      2 O         138.9711  139.5469  167.5345 O.2     1  UNL1       -0.2733
      3 N         140.9963  140.6778  166.3642 N.am    1  UNL1       -0.2833
      4 H         141.4929  140.8974  165.5430 H       1  UNL1        0.1549
      5 C         141.5083  141.1394  167.6964 C.ar    1  UNL1        0.0423
      6 C         142.4817  140.2917  168.4605 C.ar    1  UNL1       -0.0087
      7 C         142.9431  138.9823  167.8925 C.3     1  UNL1        0.0323
      8 C         142.9938  140.7534  169.7927 C.ar    1  UNL1       -0.0031
      9 C         142.5324  142.0627  170.3608 C.ar    1  UNL1       -0.0006
     10 C         141.5590  142.9104  169.5966 C.ar    1  UNL1       -0.0031
     11 C         141.0470  142.4488  168.2645 C.ar    1  UNL1       -0.0087
     12 C         140.0736  143.2965  167.5004 C.3     1  UNL1        0.0323
     13 N         138.4049  140.3484  164.0964 N.3     1  UNL1       -0.2666
     14 C         137.8929  139.8867  162.7643 C.3     1  UNL1        0.0725
     15 C         138.1917  138.4966  162.2867 C.3     1  UNL1        0.0174
     16 C         139.0025  137.5680  163.1413 C.3     1  UNL1        0.0033
     17 C         139.5145  138.0297  164.4735 C.3     1  UNL1        0.0254
     18 C         139.2157  139.4199  164.9510 C.3     1  UNL1        0.1351
     19 C         138.1061  141.7386  164.5740 C.3     1  UNL1        0.0725
     20 C         137.6894  142.7949  163.5940 C.3     1  UNL1        0.0173
     21 C         139.2498  144.7863  164.1855 C.3     1  UNL1        0.0000
     22 C         137.8742  144.2450  163.9304 C.3     1  UNL1        0.0014
@<TRIPOS>BOND
     1    21    22    1
     2    22    20    1
     3    20    19    1
     4    19    13    1
     5    13    14    1
     6    14    15    1
     7    15    16    1
     8    16    17    1
     9    17    18    1
    10    18     1    1
    11     1     2    2
    12     1     3   am
    13     3     5    1
    14     5     6   ar
    15     6     7    1
    16     6     8   ar
    17     8     9   ar
    18     9    10   ar
    19    10    11   ar
    20    11    12    1
    21    18    13    1
    22    11     5   ar
    23     3     4    1
@<TRIPOS>MOLECULE
*****
 22 23 0 0 0
SMALL
GASTEIGER

@<TRIPOS>ATOM
      1 C         142.7440  139.7137  166.5246 C.2     1  UNL1        0.2406
      2 O         143.2274  138.7754  167.5903 O.2     1  UNL1       -0.2733
      3 N         141.8181  140.8392  166.8798 N.am    1  UNL1       -0.2833
      4 H         141.5009  141.4550  166.1803 H       1  UNL1        0.1549
      5 C         141.3757  141.0263  168.3007 C.ar    1  UNL1        0.0423
      6 C         140.0629  140.4628  168.7578 C.ar    1  UNL1       -0.0087
      7 C         139.1925  139.7121  167.7940 C.3     1  UNL1        0.0323
      8 C         139.6204  140.6499  170.1789 C.ar    1  UNL1       -0.0031
      9 C         140.4907  141.4006  171.1427 C.ar    1  UNL1       -0.0006
     10 C         141.8035  141.9641  170.6856 C.ar    1  UNL1       -0.0031
     11 C         142.2460  141.7770  169.2646 C.ar    1  UNL1       -0.0087
     12 C         143.5588  142.3405  168.8075 C.3     1  UNL1        0.0323
     13 N         142.4939  138.5248  164.2281 N.3     1  UNL1       -0.2666
     14 C         142.9364  138.3377  162.8071 C.3     1  UNL1        0.0725
     15 C         144.0715  139.1526  162.2616 C.3     1  UNL1        0.0174
     16 C         144.7641  140.1545  163.1371 C.3     1  UNL1        0.0033
     17 C         144.3216  140.3415  164.5580 C.3     1  UNL1        0.0254
     18 C         143.1865  139.5267  165.1035 C.3     1  UNL1        0.1351
     19 C         141.3588  137.7099  164.7736 C.3     1  UNL1        0.0725
     20 C         139.9450  138.1764  164.5909 C.3     1  UNL1        0.0173
     21 C         138.8878  138.0379  162.2217 C.3     1  UNL1        0.0000
     22 C         139.0484  137.4852  163.6069 C.3     1  UNL1        0.0014
@<TRIPOS>BOND
     1    21    22    1
     2    22    20    1
     3    20    19    1
     4    19    13    1
     5    13    14    1
     6    14    15    1
     7    15    16    1
     8    16    17    1
     9    17    18    1
    10    18     1    1
    11     1     2    2
    12     1     3   am
    13     3     5    1
    14     5     6   ar
    15     6     7    1
    16     6     8   ar
    17     8     9   ar
    18     9    10   ar
    19    10    11   ar
    20    11    12    1
    21    18    13    1
    22    11     5   ar
    23     3     4    1
@<TRIPOS>MOLECULE
*****
 22 23 0 0 0
SMALL
GASTEIGER

@<TRIPOS>ATOM
      1 C         142.6781  139.6922  166.3689 C.2     1  UNL1        0.2406
      2 O         143.1994  138.8042  167.4596 O.2     1  UNL1       -0.2733
      3 N         141.7009  140.7831  166.6928 N.am    1  UNL1       -0.2833
      4 H         141.3587  141.3660  165.9769 H       1  UNL1        0.1549
      5 C         141.2449  140.9860  168.1073 C.ar    1  UNL1        0.0423
      6 C         142.0928  141.7716  169.0633 C.ar    1  UNL1       -0.0087
      7 C         143.3967  142.3542  168.6048 C.3     1  UNL1        0.0323
      8 C         141.6367  141.9745  170.4778 C.ar    1  UNL1       -0.0031
      9 C         140.3328  141.3918  170.9363 C.ar    1  UNL1       -0.0006
     10 C         139.4849  140.6063  169.9803 C.ar    1  UNL1       -0.0031
     11 C         139.9409  140.4034  168.5658 C.ar    1  UNL1       -0.0087
     12 C         139.0930  139.6178  167.6098 C.3     1  UNL1        0.0323
     13 N         142.5064  138.4202  164.1101 N.3     1  UNL1       -0.2666
     14 C         142.9624  138.2174  162.6955 C.3     1  UNL1        0.0725
     15 C         144.0461  139.0837  162.1253 C.3     1  UNL1        0.0174
     16 C         144.6738  140.1528  162.9696 C.3     1  UNL1        0.0033
     17 C         144.2178  140.3557  164.3841 C.3     1  UNL1        0.0254
     18 C         143.1341  139.4893  164.9544 C.3     1  UNL1        0.1351
     19 C         141.4227  137.5539  164.6803 C.3     1  UNL1        0.0725
     20 C         139.9829  137.9174  164.4692 C.3     1  UNL1        0.0173
     21 C         138.3427  138.6039  162.5748 C.3     1  UNL1        0.0000
     22 C         139.3205  137.6256  163.1554 C.3     1  UNL1        0.0014
@<TRIPOS>BOND
     1    21    22    1
     2    22    20    1
     3    20    19    1
     4    19    13    1
     5    13    14    1
     6    14    15    1
     7    15    16    1
     8    16    17    1
     9    17    18    1
    10    18     1    1
    11     1     2    2
    12     1     3   am
    13     3     5    1
    14     5     6   ar
    15     6     7    1
    16     6     8   ar
    17     8     9   ar
    18     9    10   ar
    19    10    11   ar
    20    11    12    1
    21    18    13    1
    22    11     5   ar
    23     3     4    1
@<TRIPOS>MOLECULE
*****
 22 23 0 0 0
SMALL
GASTEIGER

@<TRIPOS>ATOM
      1 C         141.3411  139.5193  166.0165 C.2     1  UNL1        0.2406
      2 O         142.4722  138.8043  166.6941 O.2     1  UNL1       -0.2733
      3 N         140.7635  140.7603  166.6298 N.am    1  UNL1       -0.2833
      4 H         140.0211  141.2296  166.1850 H       1  UNL1        0.1549
      5 C         141.3171  141.2864  167.9209 C.ar    1  UNL1        0.0423
      6 C         142.6015  142.0611  167.9259 C.ar    1  UNL1       -0.0087
      7 C         143.3324  142.3098  166.6399 C.3     1  UNL1        0.0323
      8 C         143.1550  142.5871  169.2170 C.ar    1  UNL1       -0.0031
      9 C         142.4241  142.3384  170.5031 C.ar    1  UNL1       -0.0006
     10 C         141.1397  141.5637  170.4980 C.ar    1  UNL1       -0.0031
     11 C         140.5862  141.0377  169.2070 C.ar    1  UNL1       -0.0087
     12 C         139.3018  140.2629  169.2020 C.3     1  UNL1        0.0323
     13 N         141.4680  139.3199  163.4291 N.3     1  UNL1       -0.2666
     14 C         140.9144  138.7939  162.1381 C.3     1  UNL1        0.0725
     15 C         139.6803  137.9413  162.1433 C.3     1  UNL1        0.0174
     16 C         138.9998  137.6147  163.4395 C.3     1  UNL1        0.0033
     17 C         139.5534  138.1407  164.7305 C.3     1  UNL1        0.0254
     18 C         140.7875  138.9933  164.7253 C.3     1  UNL1        0.1351
     19 C         142.7022  140.1724  163.4239 C.3     1  UNL1        0.0725
     20 C         144.0576  139.5300  163.4291 C.3     1  UNL1        0.0173
     21 C         145.7267  141.5002  163.7166 C.3     1  UNL1        0.0000
     22 C         145.1905  140.1750  164.1710 C.3     1  UNL1        0.0014
@<TRIPOS>BOND
     1    21    22    1
     2    22    20    1
     3    20    19    1
     4    19    13    1
     5    13    14    1
     6    14    15    1
     7    15    16    1
     8    16    17    1
     9    17    18    1
    10    18     1    1
    11     1     2    2
    12     1     3   am
    13     3     5    1
    14     5     6   ar
    15     6     7    1
    16     6     8   ar
    17     8     9   ar
    18     9    10   ar
    19    10    11   ar
    20    11    12    1
    21    18    13    1
    22    11     5   ar
    23     3     4    1
@<TRIPOS>MOLECULE
*****
 22 23 0 0 0
SMALL
GASTEIGER

@<TRIPOS>ATOM
      1 C         140.4730  141.8695  166.2329 C.2     1  UNL1        0.2406
      2 O         141.1685  142.3341  164.9877 O.2     1  UNL1       -0.2733
      3 N         139.2675  140.9826  166.1320 N.am    1  UNL1       -0.2833
      4 H         138.8110  140.6777  166.9493 H       1  UNL1        0.1549
      5 C         138.7574  140.5604  164.7861 C.ar    1  UNL1        0.0423
      6 C         137.9779  141.5255  163.9429 C.ar    1  UNL1       -0.0087
      7 C         137.7084  142.9128  164.4457 C.3     1  UNL1        0.0323
      8 C         137.4678  141.1032  162.5970 C.ar    1  UNL1       -0.0031
      9 C         137.7373  139.7160  162.0942 C.ar    1  UNL1       -0.0006
     10 C         138.5168  138.7509  162.9374 C.ar    1  UNL1       -0.0031
     11 C         139.0269  139.1731  164.2833 C.ar    1  UNL1       -0.0087
     12 C         139.8064  138.2080  165.1265 C.3     1  UNL1        0.0323
     13 N         142.2869  141.7537  168.0894 N.3     1  UNL1       -0.2666
     14 C         142.7968  142.1759  169.4353 C.3     1  UNL1        0.0725
     15 C         142.0030  143.1361  170.2708 C.3     1  UNL1        0.0174
     16 C         140.6992  143.6740  169.7602 C.3     1  UNL1        0.0033
     17 C         140.1893  143.2518  168.4143 C.3     1  UNL1        0.0254
     18 C         140.9831  142.2917  167.5789 C.3     1  UNL1        0.1351
     19 C         143.0807  140.7935  167.2540 C.3     1  UNL1        0.0725
     20 C         142.7774  139.3255  167.3064 C.3     1  UNL1        0.0173
     21 C         143.5214  138.7372  164.8876 C.3     1  UNL1        0.0000
     22 C         143.4434  138.3872  166.3441 C.3     1  UNL1        0.0014
@<TRIPOS>BOND
     1    21    22    1
     2    22    20    1
     3    20    19    1
     4    19    13    1
     5    13    14    1
     6    14    15    1
     7    15    16    1
     8    16    17    1
     9    17    18    1
    10    18     1    1
    11     1     2    2
    12     1     3   am
    13     3     5    1
    14     5     6   ar
    15     6     7    1
    16     6     8   ar
    17     8     9   ar
    18     9    10   ar
    19    10    11   ar
    20    11    12    1
    21    18    13    1
    22    11     5   ar
    23     3     4    1
@<TRIPOS>MOLECULE
*****
 22 23 0 0 0
SMALL
GASTEIGER

@<TRIPOS>ATOM
      1 C         141.0754  142.0563  166.2674 C.2     1  UNL1        0.2406
      2 O         141.9711  142.5306  165.1617 O.2     1  UNL1       -0.2733
      3 N         139.5961  141.9523  166.0418 N.am    1  UNL1       -0.2833
      4 H         139.0082  141.6410  166.7676 H       1  UNL1        0.1549
      5 C         139.0125  142.3226  164.7106 C.ar    1  UNL1        0.0423
      6 C         138.8663  141.2819  163.6402 C.ar    1  UNL1       -0.0087
      7 C         139.3035  139.8710  163.9011 C.3     1  UNL1        0.0323
      8 C         138.2826  141.6523  162.3089 C.ar    1  UNL1       -0.0031
      9 C         137.8454  143.0632  162.0480 C.ar    1  UNL1       -0.0006
     10 C         137.9916  144.1038  163.1184 C.ar    1  UNL1       -0.0031
     11 C         138.5752  143.7335  164.4496 C.ar    1  UNL1       -0.0087
     12 C         138.7215  144.7742  165.5200 C.3     1  UNL1        0.0323
     13 N         142.1537  140.2905  167.8387 N.3     1  UNL1       -0.2666
     14 C         142.7373  139.9203  169.1700 C.3     1  UNL1        0.0725
     15 C         142.8260  140.9456  170.2613 C.3     1  UNL1        0.0174
     16 C         142.3312  142.3411  170.0213 C.3     1  UNL1        0.0033
     17 C         141.7477  142.7113  168.6900 C.3     1  UNL1        0.0254
     18 C         141.6590  141.6860  167.5987 C.3     1  UNL1        0.1351
     19 C         142.0650  139.2652  166.7475 C.3     1  UNL1        0.0725
     20 C         143.3049  138.8311  166.0236 C.3     1  UNL1        0.0173
     21 C         145.0183  139.6384  164.2452 C.3     1  UNL1        0.0000
     22 C         143.6008  139.3677  164.6545 C.3     1  UNL1        0.0014
@<TRIPOS>BOND
     1    21    22    1
     2    22    20    1
     3    20    19    1
     4    19    13    1
     5    13    14    1
     6    14    15    1
     7    15    16    1
     8    16    17    1
     9    17    18    1
    10    18     1    1
    11     1     2    2
    12     1     3   am
    13     3     5    1
    14     5     6   ar
    15     6     7    1
    16     6     8   ar
    17     8     9   ar
    18     9    10   ar
    19    10    11   ar
    20    11    12    1
    21    18    13    1
    22    11     5   ar
    23     3     4    1
