@<TRIPOS>MOLECULE
*****
 30 33 0 0 0
SMALL
GASTEIGER

@<TRIPOS>ATOM
      1 C         140.9760  142.6563  166.0516 C.3     1  UNL1        0.0678
      2 C         142.2566  141.8851  165.9280 C.3     1  UNL1        0.0177
      3 C         141.8313  142.8136  164.8295 C.3     1  UNL1        0.0845
      4 C         140.5092  142.1727  167.3926 C.ar    1  UNL1       -0.0188
      5 C         140.5267  143.0996  168.5719 C.ar    1  UNL1       -0.0042
      6 C         140.0599  142.6160  169.9129 C.ar    1  UNL1       -0.0003
      7 C         139.5755  141.2057  170.0746 C.ar    1  UNL1       -0.0000
      8 C         139.5580  140.2788  168.8953 C.ar    1  UNL1       -0.0003
      9 C         140.0248  140.7624  167.5544 C.ar    1  UNL1       -0.0042
     10 C         142.0795  143.4407  163.4895 C.2     1  UNL1        0.2271
     11 O         142.9780  144.6364  163.3758 O.2     1  UNL1       -0.2747
     12 N         141.4292  142.8719  162.2633 N.am    1  UNL1       -0.2693
     13 H         140.8395  142.0871  162.3379 H       1  UNL1        0.1563
     14 C         141.6774  143.4988  160.9234 C.ar    1  UNL1        0.1343
     15 C         140.8727  144.6888  160.4915 C.ar    1  UNL1        0.0368
     16 C         141.1209  145.3157  159.1516 C.ar    1  UNL1        0.0341
     17 C         142.1738  144.7527  158.2436 C.ar    1  UNL1        0.1593
     18 F         142.4220  145.3796  156.9037 F       1  UNL1       -0.2025
     19 C         142.9784  143.5628  158.6755 C.ar    1  UNL1        0.1298
     20 N         142.7302  142.9358  160.0154 N.ar    1  UNL1       -0.2267
     21 C         139.8575  143.5953  165.7095 C.3     1  UNL1        0.2098
     22 O         138.4837  143.0580  165.4378 O.3     1  UNL1       -0.4723
     23 C         137.4622  139.7845  160.5143 C.3     1  UNL1        0.0736
     24 C         137.7176  140.6029  161.7452 C.ar    1  UNL1        0.1394
     25 N         138.0095  139.9236  163.0503 N.ar    1  UNL1       -0.2260
     26 C         138.2648  140.7420  164.2811 C.ar    1  UNL1        0.1382
     27 C         138.2283  142.2397  164.2069 C.ar    1  UNL1        0.1711
     28 C         137.9365  142.9190  162.9018 C.ar    1  UNL1        0.0960
     29 C         137.8999  144.4167  162.8275 C.3     1  UNL1        0.0555
     30 N         137.6811  142.1006  161.6709 N.ar    1  UNL1       -0.2319
@<TRIPOS>BOND
     1    23    24    1
     2    24    25   ar
     3    25    26   ar
     4    26    27   ar
     5    27    22    1
     6    22    21    1
     7     1    21    1
     8     1     4    1
     9     4     5   ar
    10     5     6   ar
    11     6     7   ar
    12     7     8   ar
    13     8     9   ar
    14     1     2    1
    15     2     3    1
    16     3    10    1
    17    10    11    2
    18    10    12   am
    19    12    14    1
    20    14    15   ar
    21    15    16   ar
    22    16    17   ar
    23    17    18    1
    24    17    19   ar
    25    19    20   ar
    26    27    28   ar
    27    28    29    1
    28    28    30   ar
    29    30    24   ar
    30     3     1    1
    31    20    14   ar
    32     9     4   ar
    33    12    13    1
@<TRIPOS>MOLECULE
*****
 30 33 0 0 0
SMALL
GASTEIGER

@<TRIPOS>ATOM
      1 C         142.2967  141.6878  166.1097 C.3     1  UNL1        0.0678
      2 C         143.5385  141.1587  165.4555 C.3     1  UNL1        0.0177
      3 C         142.5035  141.8696  164.6352 C.3     1  UNL1        0.0845
      4 C         142.5520  141.2719  167.5281 C.ar    1  UNL1       -0.0188
      5 C         143.1028  142.2611  168.5121 C.ar    1  UNL1       -0.0042
      6 C         143.3581  141.8453  169.9305 C.ar    1  UNL1       -0.0003
      7 C         143.0626  140.4404  170.3649 C.ar    1  UNL1       -0.0000
      8 C         142.5118  139.4512  169.3809 C.ar    1  UNL1       -0.0003
      9 C         142.2565  139.8670  167.9625 C.ar    1  UNL1       -0.0042
     10 C         142.0252  142.3852  163.3101 C.2     1  UNL1        0.2271
     11 O         141.2186  141.4994  162.4075 O.2     1  UNL1       -0.2747
     12 N         142.3537  143.7866  162.8878 N.am    1  UNL1       -0.2693
     13 H         142.8831  144.3679  163.4802 H       1  UNL1        0.1563
     14 C         141.8755  144.3021  161.5629 C.ar    1  UNL1        0.1343
     15 C         140.6776  145.2025  161.4965 C.ar    1  UNL1        0.0368
     16 C         140.1994  145.7180  160.1715 C.ar    1  UNL1        0.0341
     17 C         140.9191  145.3333  158.9129 C.ar    1  UNL1        0.1593
     18 F         140.4409  145.8488  157.5880 F       1  UNL1       -0.2025
     19 C         142.1170  144.4330  158.9794 C.ar    1  UNL1        0.1298
     20 N         142.5952  143.9174  160.3043 N.ar    1  UNL1       -0.2267
     21 C         140.9661  142.3613  166.2711 C.3     1  UNL1        0.2098
     22 O         139.7192  141.5375  166.3994 O.3     1  UNL1       -0.4723
     23 C         137.7667  138.3041  161.7376 C.3     1  UNL1        0.0736
     24 C         138.2548  139.1124  162.9031 C.ar    1  UNL1        0.1394
     25 N         139.2380  138.5191  163.8681 N.ar    1  UNL1       -0.2260
     26 C         139.7261  139.3275  165.0335 C.ar    1  UNL1        0.1382
     27 C         139.2311  140.7291  165.2340 C.ar    1  UNL1        0.1711
     28 C         138.2479  141.3225  164.2690 C.ar    1  UNL1        0.0960
     29 C         137.7528  142.7242  164.4694 C.3     1  UNL1        0.0555
     30 N         137.7598  140.5141  163.1035 N.ar    1  UNL1       -0.2319
@<TRIPOS>BOND
     1    23    24    1
     2    24    25   ar
     3    25    26   ar
     4    26    27   ar
     5    27    22    1
     6    22    21    1
     7     1    21    1
     8     1     4    1
     9     4     5   ar
    10     5     6   ar
    11     6     7   ar
    12     7     8   ar
    13     8     9   ar
    14     1     2    1
    15     2     3    1
    16     3    10    1
    17    10    11    2
    18    10    12   am
    19    12    14    1
    20    14    15   ar
    21    15    16   ar
    22    16    17   ar
    23    17    18    1
    24    17    19   ar
    25    19    20   ar
    26    27    28   ar
    27    28    29    1
    28    28    30   ar
    29    30    24   ar
    30     3     1    1
    31    20    14   ar
    32     9     4   ar
    33    12    13    1
@<TRIPOS>MOLECULE
*****
 30 33 0 0 0
SMALL
GASTEIGER

@<TRIPOS>ATOM
      1 C         140.7021  141.8110  166.3386 C.3     1  UNL1        0.0678
      2 C         139.7323  140.7756  166.8260 C.3     1  UNL1        0.0177
      3 C         139.8610  141.0499  165.3570 C.3     1  UNL1        0.0845
      4 C         141.2754  142.2675  167.6473 C.ar    1  UNL1       -0.0188
      5 C         140.4367  143.0758  168.5924 C.ar    1  UNL1       -0.0042
      6 C         141.0101  143.5323  169.9012 C.ar    1  UNL1       -0.0003
      7 C         142.4221  143.1805  170.2648 C.ar    1  UNL1       -0.0000
      8 C         143.2609  142.3722  169.3197 C.ar    1  UNL1       -0.0003
      9 C         142.6875  141.9157  168.0110 C.ar    1  UNL1       -0.0042
     10 C         139.4497  140.7689  163.9421 C.2     1  UNL1        0.2271
     11 O         137.9950  140.6804  163.5873 O.2     1  UNL1       -0.2747
     12 N         140.4933  140.5765  162.8819 N.am    1  UNL1       -0.2693
     13 H         141.4481  140.6346  163.1147 H       1  UNL1        0.1563
     14 C         140.0822  140.2955  161.4670 C.ar    1  UNL1        0.1343
     15 C         139.9175  141.4262  160.4952 C.ar    1  UNL1        0.0368
     16 C         139.5063  141.1452  159.0803 C.ar    1  UNL1        0.0341
     17 C         139.2598  139.7335  158.6371 C.ar    1  UNL1        0.1593
     18 F         138.8487  139.4525  157.2223 F       1  UNL1       -0.2025
     19 C         139.4246  138.6028  159.6090 C.ar    1  UNL1        0.1298
     20 N         139.8357  138.8838  161.0239 N.ar    1  UNL1       -0.2267
     21 C         141.4727  142.6877  165.3966 C.3     1  UNL1        0.2098
     22 O         140.9077  144.0105  164.9712 O.3     1  UNL1       -0.4723
     23 C         140.4428  145.3382  159.1384 C.3     1  UNL1        0.0736
     24 C         140.5590  145.0063  160.5966 C.ar    1  UNL1        0.1394
     25 N         141.9122  144.8556  161.2260 N.ar    1  UNL1       -0.2260
     26 C         142.0284  144.5237  162.6842 C.ar    1  UNL1        0.1382
     27 C         140.7914  144.3424  163.5130 C.ar    1  UNL1        0.1711
     28 C         139.4383  144.4931  162.8836 C.ar    1  UNL1        0.0960
     29 C         138.2012  144.3118  163.7125 C.3     1  UNL1        0.0555
     30 N         139.3220  144.8250  161.4255 N.ar    1  UNL1       -0.2319
@<TRIPOS>BOND
     1    23    24    1
     2    24    25   ar
     3    25    26   ar
     4    26    27   ar
     5    27    22    1
     6    22    21    1
     7     1    21    1
     8     1     4    1
     9     4     5   ar
    10     5     6   ar
    11     6     7   ar
    12     7     8   ar
    13     8     9   ar
    14     1     2    1
    15     2     3    1
    16     3    10    1
    17    10    11    2
    18    10    12   am
    19    12    14    1
    20    14    15   ar
    21    15    16   ar
    22    16    17   ar
    23    17    18    1
    24    17    19   ar
    25    19    20   ar
    26    27    28   ar
    27    28    29    1
    28    28    30   ar
    29    30    24   ar
    30     3     1    1
    31    20    14   ar
    32     9     4   ar
    33    12    13    1
@<TRIPOS>MOLECULE
*****
 30 33 0 0 0
SMALL
GASTEIGER

@<TRIPOS>ATOM
      1 C         141.2897  141.0812  166.7013 C.3     1  UNL1        0.0678
      2 C         141.9037  139.7867  167.1454 C.3     1  UNL1        0.0177
      3 C         141.9784  140.1968  165.7046 C.3     1  UNL1        0.0845
      4 C         140.7491  141.5757  168.0102 C.ar    1  UNL1       -0.0188
      5 C         139.8574  140.6947  168.8342 C.ar    1  UNL1       -0.0042
      6 C         139.3168  141.1892  170.1431 C.ar    1  UNL1       -0.0003
      7 C         139.6678  142.5645  170.6280 C.ar    1  UNL1       -0.0000
      8 C         140.5595  143.4455  169.8040 C.ar    1  UNL1       -0.0003
      9 C         141.1001  142.9510  168.4951 C.ar    1  UNL1       -0.0042
     10 C         142.4191  139.9229  164.2971 C.2     1  UNL1        0.2271
     11 O         143.8383  140.1883  163.8904 O.2     1  UNL1       -0.2747
     12 N         141.4405  139.3837  163.2962 N.am    1  UNL1       -0.2693
     13 H         140.5090  139.2095  163.5631 H       1  UNL1        0.1563
     14 C         141.8811  139.1099  161.8888 C.ar    1  UNL1        0.1343
     15 C         141.6176  140.1189  160.8107 C.ar    1  UNL1        0.0368
     16 C         142.0583  139.8450  159.4033 C.ar    1  UNL1        0.0341
     17 C         142.7624  138.5622  159.0740 C.ar    1  UNL1        0.1593
     18 F         143.2031  138.2883  157.6666 F       1  UNL1       -0.2025
     19 C         143.0258  137.5532  160.1522 C.ar    1  UNL1        0.1298
     20 N         142.5852  137.8270  161.5595 N.ar    1  UNL1       -0.2267
     21 C         140.8635  142.2040  165.8026 C.3     1  UNL1        0.2098
     22 O         139.4209  142.3515  165.4191 O.3     1  UNL1       -0.4723
     23 C         137.3776  139.7972  160.3892 C.3     1  UNL1        0.0736
     24 C         137.8884  140.4358  161.6466 C.ar    1  UNL1        0.1394
     25 N         138.5132  141.7985  161.5955 N.ar    1  UNL1       -0.2260
     26 C         139.0240  142.4371  162.8530 C.ar    1  UNL1        0.1382
     27 C         138.9101  141.7129  164.1616 C.ar    1  UNL1        0.1711
     28 C         138.2854  140.3502  164.2128 C.ar    1  UNL1        0.0960
     29 C         138.1714  139.6260  165.5215 C.3     1  UNL1        0.0555
     30 N         137.7745  139.7117  162.9553 N.ar    1  UNL1       -0.2319
@<TRIPOS>BOND
     1    23    24    1
     2    24    25   ar
     3    25    26   ar
     4    26    27   ar
     5    27    22    1
     6    22    21    1
     7     1    21    1
     8     1     4    1
     9     4     5   ar
    10     5     6   ar
    11     6     7   ar
    12     7     8   ar
    13     8     9   ar
    14     1     2    1
    15     2     3    1
    16     3    10    1
    17    10    11    2
    18    10    12   am
    19    12    14    1
    20    14    15   ar
    21    15    16   ar
    22    16    17   ar
    23    17    18    1
    24    17    19   ar
    25    19    20   ar
    26    27    28   ar
    27    28    29    1
    28    28    30   ar
    29    30    24   ar
    30     3     1    1
    31    20    14   ar
    32     9     4   ar
    33    12    13    1
@<TRIPOS>MOLECULE
*****
 30 33 0 0 0
SMALL
GASTEIGER

@<TRIPOS>ATOM
      1 C         140.4246  142.6965  165.5638 C.3     1  UNL1        0.0678
      2 C         139.0282  142.6302  165.0200 C.3     1  UNL1        0.0177
      3 C         140.1264  143.2328  164.1951 C.3     1  UNL1        0.0845
      4 C         140.2121  142.0605  166.9056 C.ar    1  UNL1       -0.0188
      5 C         139.7119  140.6492  166.9958 C.ar    1  UNL1       -0.0042
      6 C         139.4994  140.0131  168.3375 C.ar    1  UNL1       -0.0003
      7 C         139.7871  140.7883  169.5890 C.ar    1  UNL1       -0.0000
      8 C         140.2872  142.1996  169.4988 C.ar    1  UNL1       -0.0003
      9 C         140.4997  142.8356  168.1571 C.ar    1  UNL1       -0.0042
     10 C         140.5884  143.8904  162.9285 C.2     1  UNL1        0.2271
     11 O         141.3253  145.1956  162.9866 O.2     1  UNL1       -0.2747
     12 N         140.3135  143.2427  161.6037 N.am    1  UNL1       -0.2693
     13 H         139.8298  142.3861  161.5655 H       1  UNL1        0.1563
     14 C         140.7755  143.9002  160.3371 C.ar    1  UNL1        0.1343
     15 C         142.0643  143.4749  159.6982 C.ar    1  UNL1        0.0368
     16 C         142.5262  144.1325  158.4316 C.ar    1  UNL1        0.0341
     17 C         141.6994  145.2153  157.8039 C.ar    1  UNL1        0.1593
     18 F         142.1613  145.8728  156.5374 F       1  UNL1       -0.2025
     19 C         140.4106  145.6405  158.4429 C.ar    1  UNL1        0.1298
     20 N         139.9487  144.9830  159.7095 N.ar    1  UNL1       -0.2267
     21 C         141.8947  142.9838  165.6416 C.3     1  UNL1        0.2098
     22 O         142.8709  141.8578  165.8128 O.3     1  UNL1       -0.4723
     23 C         143.8567  138.0295  161.2993 C.3     1  UNL1        0.0736
     24 C         143.6102  138.9865  162.4277 C.ar    1  UNL1        0.1394
     25 N         143.6399  140.4651  162.1770 N.ar    1  UNL1       -0.2260
     26 C         143.3935  141.4222  163.3054 C.ar    1  UNL1        0.1382
     27 C         143.1173  140.9007  164.6844 C.ar    1  UNL1        0.1711
     28 C         143.0876  139.4221  164.9351 C.ar    1  UNL1        0.0960
     29 C         142.8115  138.9006  166.3142 C.3     1  UNL1        0.0555
     30 N         143.3341  138.4651  163.8067 N.ar    1  UNL1       -0.2319
@<TRIPOS>BOND
     1    23    24    1
     2    24    25   ar
     3    25    26   ar
     4    26    27   ar
     5    27    22    1
     6    22    21    1
     7     1    21    1
     8     1     4    1
     9     4     5   ar
    10     5     6   ar
    11     6     7   ar
    12     7     8   ar
    13     8     9   ar
    14     1     2    1
    15     2     3    1
    16     3    10    1
    17    10    11    2
    18    10    12   am
    19    12    14    1
    20    14    15   ar
    21    15    16   ar
    22    16    17   ar
    23    17    18    1
    24    17    19   ar
    25    19    20   ar
    26    27    28   ar
    27    28    29    1
    28    28    30   ar
    29    30    24   ar
    30     3     1    1
    31    20    14   ar
    32     9     4   ar
    33    12    13    1
@<TRIPOS>MOLECULE
*****
 30 33 0 0 0
SMALL
GASTEIGER

@<TRIPOS>ATOM
      1 C         139.7964  140.3816  166.1423 C.3     1  UNL1        0.0678
      2 C         138.5221  139.5992  166.2601 C.3     1  UNL1        0.0177
      3 C         138.8477  140.3141  164.9824 C.3     1  UNL1        0.0845
      4 C         140.3720  140.1493  167.5078 C.ar    1  UNL1       -0.0188
      5 C         139.5082  140.3119  168.7234 C.ar    1  UNL1       -0.0042
      6 C         140.0838  140.0797  170.0890 C.ar    1  UNL1       -0.0003
      7 C         141.5230  139.6848  170.2390 C.ar    1  UNL1       -0.0000
      8 C         142.3868  139.5222  169.0234 C.ar    1  UNL1       -0.0003
      9 C         141.8112  139.7545  167.6579 C.ar    1  UNL1       -0.0042
     10 C         138.4879  140.6879  163.5749 C.2     1  UNL1        0.2271
     11 O         137.1680  141.3393  163.2859 O.2     1  UNL1       -0.2747
     12 N         139.4481  140.4103  162.4564 N.am    1  UNL1       -0.2693
     13 H         140.3144  139.9828  162.6461 H       1  UNL1        0.1563
     14 C         139.0885  140.7841  161.0490 C.ar    1  UNL1        0.1343
     15 C         138.8331  139.7129  160.0304 C.ar    1  UNL1        0.0368
     16 C         138.4734  140.0868  158.6230 C.ar    1  UNL1        0.0341
     17 C         138.3691  141.5317  158.2341 C.ar    1  UNL1        0.1593
     18 F         138.0094  141.9055  156.8267 F       1  UNL1       -0.2025
     19 C         138.6244  142.6028  159.2527 C.ar    1  UNL1        0.1298
     20 N         138.9841  142.2290  160.6601 N.ar    1  UNL1       -0.2267
     21 C         140.8708  141.2447  165.5501 C.3     1  UNL1        0.2098
     22 O         140.7421  142.7385  165.5941 O.3     1  UNL1       -0.4723
     23 C         140.2380  145.8579  160.4937 C.3     1  UNL1        0.0736
     24 C         140.3640  145.0781  161.7688 C.ar    1  UNL1        0.1394
     25 N         141.5508  144.1876  161.9891 N.ar    1  UNL1       -0.2260
     26 C         141.6768  143.4078  163.2643 C.ar    1  UNL1        0.1382
     27 C         140.6161  143.5184  164.3190 C.ar    1  UNL1        0.1711
     28 C         139.4293  144.4088  164.0987 C.ar    1  UNL1        0.0960
     29 C         138.3685  144.5194  165.1534 C.3     1  UNL1        0.0555
     30 N         139.3033  145.1887  162.8235 N.ar    1  UNL1       -0.2319
@<TRIPOS>BOND
     1    23    24    1
     2    24    25   ar
     3    25    26   ar
     4    26    27   ar
     5    27    22    1
     6    22    21    1
     7     1    21    1
     8     1     4    1
     9     4     5   ar
    10     5     6   ar
    11     6     7   ar
    12     7     8   ar
    13     8     9   ar
    14     1     2    1
    15     2     3    1
    16     3    10    1
    17    10    11    2
    18    10    12   am
    19    12    14    1
    20    14    15   ar
    21    15    16   ar
    22    16    17   ar
    23    17    18    1
    24    17    19   ar
    25    19    20   ar
    26    27    28   ar
    27    28    29    1
    28    28    30   ar
    29    30    24   ar
    30     3     1    1
    31    20    14   ar
    32     9     4   ar
    33    12    13    1
@<TRIPOS>MOLECULE
*****
 30 33 0 0 0
SMALL
GASTEIGER

@<TRIPOS>ATOM
      1 C         143.3440  140.8883  162.5552 C.3     1  UNL1        0.0678
      2 C         144.6350  140.3005  163.0429 C.3     1  UNL1        0.0177
      3 C         143.5886  140.7323  164.0269 C.3     1  UNL1        0.0845
      4 C         143.5757  140.8334  161.0743 C.ar    1  UNL1       -0.0188
      5 C         143.3317  139.5578  160.3237 C.ar    1  UNL1       -0.0042
      6 C         143.5634  139.5030  158.8427 C.ar    1  UNL1       -0.0003
      7 C         144.0392  140.7236  158.1124 C.ar    1  UNL1       -0.0000
      8 C         144.2833  141.9992  158.8629 C.ar    1  UNL1       -0.0003
      9 C         144.0515  142.0541  160.3439 C.ar    1  UNL1       -0.0042
     10 C         143.1256  140.8917  165.4448 C.2     1  UNL1        0.2271
     11 O         143.3149  142.2003  166.1531 O.2     1  UNL1       -0.2747
     12 N         142.4731  139.7424  166.1544 N.am    1  UNL1       -0.2693
     13 H         142.3488  138.8835  165.6895 H       1  UNL1        0.1563
     14 C         142.0101  139.9016  167.5722 C.ar    1  UNL1        0.1343
     15 C         140.6916  140.5557  167.8616 C.ar    1  UNL1        0.0368
     16 C         140.2286  140.7149  169.2795 C.ar    1  UNL1        0.0341
     17 C         141.0841  140.2202  170.4079 C.ar    1  UNL1        0.1593
     18 F         140.6211  140.3795  171.8257 F       1  UNL1       -0.2025
     19 C         142.4026  139.5662  170.1184 C.ar    1  UNL1        0.1298
     20 N         142.8656  139.4069  168.7006 N.ar    1  UNL1       -0.2267
     21 C         141.9725  141.4951  162.5820 C.3     1  UNL1        0.2098
     22 O         140.7705  140.6451  162.2944 O.3     1  UNL1       -0.4723
     23 C         137.6728  138.2021  166.8151 C.3     1  UNL1        0.0736
     24 C         138.4473  138.8128  165.6849 C.ar    1  UNL1        0.1394
     25 N         138.2057  140.2412  165.2959 N.ar    1  UNL1       -0.2260
     26 C         138.9801  140.8519  164.1657 C.ar    1  UNL1        0.1382
     27 C         139.9961  140.0343  163.4246 C.ar    1  UNL1        0.1711
     28 C         140.2376  138.6060  163.8136 C.ar    1  UNL1        0.0960
     29 C         141.2536  137.7883  163.0725 C.3     1  UNL1        0.0555
     30 N         139.4632  137.9952  164.9438 N.ar    1  UNL1       -0.2319
@<TRIPOS>BOND
     1    23    24    1
     2    24    25   ar
     3    25    26   ar
     4    26    27   ar
     5    27    22    1
     6    22    21    1
     7     1    21    1
     8     1     4    1
     9     4     5   ar
    10     5     6   ar
    11     6     7   ar
    12     7     8   ar
    13     8     9   ar
    14     1     2    1
    15     2     3    1
    16     3    10    1
    17    10    11    2
    18    10    12   am
    19    12    14    1
    20    14    15   ar
    21    15    16   ar
    22    16    17   ar
    23    17    18    1
    24    17    19   ar
    25    19    20   ar
    26    27    28   ar
    27    28    29    1
    28    28    30   ar
    29    30    24   ar
    30     3     1    1
    31    20    14   ar
    32     9     4   ar
    33    12    13    1
@<TRIPOS>MOLECULE
*****
 30 33 0 0 0
SMALL
GASTEIGER

@<TRIPOS>ATOM
      1 C         140.9514  140.5654  166.2233 C.3     1  UNL1        0.0678
      2 C         142.4343  140.5074  166.4415 C.3     1  UNL1        0.0177
      3 C         141.8555  140.1126  165.1153 C.3     1  UNL1        0.0845
      4 C         140.5090  141.0574  167.5695 C.ar    1  UNL1       -0.0188
      5 C         139.6800  140.1752  168.4552 C.ar    1  UNL1       -0.0042
      6 C         139.2376  140.6672  169.8014 C.ar    1  UNL1       -0.0003
      7 C         139.6243  142.0413  170.2619 C.ar    1  UNL1       -0.0000
      8 C         140.4533  142.9236  169.3762 C.ar    1  UNL1       -0.0003
      9 C         140.8957  142.4316  168.0300 C.ar    1  UNL1       -0.0042
     10 C         142.0432  139.6232  163.7098 C.2     1  UNL1        0.2271
     11 O         142.6454  138.2723  163.4601 O.2     1  UNL1       -0.2747
     12 N         141.6287  140.4848  162.5540 N.am    1  UNL1       -0.2693
     13 H         141.2334  141.3715  162.7179 H       1  UNL1        0.1563
     14 C         141.8163  139.9955  161.1486 C.ar    1  UNL1        0.1343
     15 C         140.6575  139.4104  160.3970 C.ar    1  UNL1        0.0368
     16 C         140.8452  138.9212  158.9916 C.ar    1  UNL1        0.0341
     17 C         142.1918  139.0169  158.3376 C.ar    1  UNL1        0.1593
     18 F         142.3794  138.5276  156.9322 F       1  UNL1       -0.2025
     19 C         143.3505  139.6020  159.0892 C.ar    1  UNL1        0.1298
     20 N         143.1629  140.0913  160.4946 N.ar    1  UNL1       -0.2267
     21 C         139.6222  140.4525  165.5375 C.3     1  UNL1        0.2098
     22 O         138.6944  141.6306  165.5014 O.3     1  UNL1       -0.4723
     23 C         139.6997  146.1241  161.6546 C.3     1  UNL1        0.0736
     24 C         139.4484  145.0007  162.6163 C.ar    1  UNL1        0.1394
     25 N         140.1002  145.0099  163.9672 N.ar    1  UNL1       -0.2260
     26 C         139.8489  143.8866  164.9289 C.ar    1  UNL1        0.1382
     27 C         138.9457  142.7540  164.5397 C.ar    1  UNL1        0.1711
     28 C         138.2939  142.7448  163.1888 C.ar    1  UNL1        0.0960
     29 C         137.3907  141.6122  162.7995 C.3     1  UNL1        0.0555
     30 N         138.5452  143.8682  162.2271 N.ar    1  UNL1       -0.2319
@<TRIPOS>BOND
     1    23    24    1
     2    24    25   ar
     3    25    26   ar
     4    26    27   ar
     5    27    22    1
     6    22    21    1
     7     1    21    1
     8     1     4    1
     9     4     5   ar
    10     5     6   ar
    11     6     7   ar
    12     7     8   ar
    13     8     9   ar
    14     1     2    1
    15     2     3    1
    16     3    10    1
    17    10    11    2
    18    10    12   am
    19    12    14    1
    20    14    15   ar
    21    15    16   ar
    22    16    17   ar
    23    17    18    1
    24    17    19   ar
    25    19    20   ar
    26    27    28   ar
    27    28    29    1
    28    28    30   ar
    29    30    24   ar
    30     3     1    1
    31    20    14   ar
    32     9     4   ar
    33    12    13    1
@<TRIPOS>MOLECULE
*****
 30 33 0 0 0
SMALL
GASTEIGER

@<TRIPOS>ATOM
      1 C         139.8671  141.1830  166.4407 C.3     1  UNL1        0.0678
      2 C         140.1528  142.6422  166.2431 C.3     1  UNL1        0.0177
      3 C         139.5192  141.8462  165.1410 C.3     1  UNL1        0.0845
      4 C         140.3755  141.0053  167.8407 C.ar    1  UNL1       -0.0188
      5 C         139.5110  140.3466  168.8746 C.ar    1  UNL1       -0.0042
      6 C         140.0195  140.1688  170.2746 C.ar    1  UNL1       -0.0003
      7 C         141.3923  140.6497  170.6406 C.ar    1  UNL1       -0.0000
      8 C         142.2567  141.3084  169.6067 C.ar    1  UNL1       -0.0003
      9 C         141.7483  141.4862  168.2068 C.ar    1  UNL1       -0.0042
     10 C         138.9525  141.7693  163.7542 C.2     1  UNL1        0.2271
     11 O         137.4827  141.9698  163.5325 O.2     1  UNL1       -0.2747
     12 N         139.8559  141.4920  162.5892 N.am    1  UNL1       -0.2693
     13 H         140.8206  141.3604  162.7348 H       1  UNL1        0.1563
     14 C         139.2893  141.4152  161.2025 C.ar    1  UNL1        0.1343
     15 C         138.8419  140.0955  160.6472 C.ar    1  UNL1        0.0368
     16 C         138.2753  140.0188  159.2604 C.ar    1  UNL1        0.0341
     17 C         138.1561  141.2616  158.4290 C.ar    1  UNL1        0.1593
     18 F         137.5895  141.1847  157.0423 F       1  UNL1       -0.2025
     19 C         138.6035  142.5811  158.9844 C.ar    1  UNL1        0.1298
     20 N         139.1700  142.6580  160.3711 N.ar    1  UNL1       -0.2267
     21 C         139.4048  139.7855  166.1521 C.3     1  UNL1        0.2098
     22 O         140.4093  138.6919  165.9405 O.3     1  UNL1       -0.4723
     23 C         142.7131  137.7495  160.4811 C.3     1  UNL1        0.0736
     24 C         142.1371  137.9851  161.8460 C.ar    1  UNL1        0.1394
     25 N         140.7681  137.4719  162.1811 N.ar    1  UNL1       -0.2260
     26 C         140.1922  137.7075  163.5460 C.ar    1  UNL1        0.1382
     27 C         140.9853  138.4563  164.5757 C.ar    1  UNL1        0.1711
     28 C         142.3543  138.9695  164.2405 C.ar    1  UNL1        0.0960
     29 C         143.1475  139.7183  165.2702 C.3     1  UNL1        0.0555
     30 N         142.9302  138.7339  162.8757 N.ar    1  UNL1       -0.2319
@<TRIPOS>BOND
     1    23    24    1
     2    24    25   ar
     3    25    26   ar
     4    26    27   ar
     5    27    22    1
     6    22    21    1
     7     1    21    1
     8     1     4    1
     9     4     5   ar
    10     5     6   ar
    11     6     7   ar
    12     7     8   ar
    13     8     9   ar
    14     1     2    1
    15     2     3    1
    16     3    10    1
    17    10    11    2
    18    10    12   am
    19    12    14    1
    20    14    15   ar
    21    15    16   ar
    22    16    17   ar
    23    17    18    1
    24    17    19   ar
    25    19    20   ar
    26    27    28   ar
    27    28    29    1
    28    28    30   ar
    29    30    24   ar
    30     3     1    1
    31    20    14   ar
    32     9     4   ar
    33    12    13    1
