@<TRIPOS>MOLECULE
*****
 44 49 0 0 0
SMALL
GASTEIGER

@<TRIPOS>ATOM
      1 C         141.1413  140.1608  166.6950 C.3     1  UNL1        0.1094
      2 C         141.5863  141.5725  166.4515 C.3     1  UNL1        0.0301
      3 C         142.8387  141.8400  165.6706 C.3     1  UNL1        0.0194
      4 C         143.6462  140.6958  165.1330 C.3     1  UNL1        0.0700
      5 C         143.2012  139.2841  165.3765 C.3     1  UNL1        0.0194
      6 C         141.9488  139.0167  166.1575 C.3     1  UNL1        0.0301
      7 C         142.9671  140.4996  165.5552 C.3     1  UNL1        0.1562
      8 O         141.8346  140.2577  166.2613 O.3     1  UNL1       -0.3557
      9 N         144.8986  140.9633  164.3520 N.3     1  UNL1       -0.2926
     10 H         144.9246  140.2808  163.5945 H       1  UNL1        0.1236
     11 C         145.1212  142.3098  163.7296 C.3     1  UNL1        0.1152
     12 C         144.2411  142.7714  162.6061 C.ar    1  UNL1        0.0765
     13 C         144.4657  142.2537  161.2162 C.ar    1  UNL1        0.0193
     14 C         143.5856  142.7153  160.0927 C.ar    1  UNL1        0.0411
     15 C         142.4811  143.6946  160.3589 C.ar    1  UNL1        0.1708
     16 C         142.2565  144.2123  161.7487 C.ar    1  UNL1        0.1682
     17 N         143.1365  143.7507  162.8723 N.ar    1  UNL1       -0.2304
     18 N         141.1519  145.1916  162.0149 N.am    1  UNL1       -0.2639
     19 C         140.2719  145.6532  160.8914 C.2     1  UNL1        0.2718
     20 O         139.1673  146.6325  161.1576 O.2     1  UNL1       -0.2707
     21 C         140.4964  145.1356  159.5015 C.3     1  UNL1        0.2898
     22 O         141.6010  144.1563  159.2353 O.3     1  UNL1       -0.4628
     23 H         141.0046  145.5314  162.9271 H       1  UNL1        0.1565
     24 C         139.8890  139.8933  167.4759 C.3     1  UNL1        0.1207
     25 N         139.9300  139.8729  168.9752 N.3     1  UNL1       -0.1399
     26 H         140.9136  139.9034  169.2433 H       1  UNL1        0.1680
     27 O         139.2340  140.9457  169.7592 O.3     1  UNL1       -0.3679
     28 C         140.0217  142.0860  170.3331 C.2     1  UNL1        0.3352
     29 C         140.3813  143.2587  169.4697 C.3     1  UNL1        0.1230
     30 O         140.4498  142.0536  171.7703 O.2     1  UNL1       -0.2484
     31 C         138.5955  139.6462  166.7576 C.3     1  UNL1        0.0517
     32 C         137.9731  143.0628  163.8958 C.ar    1  UNL1        0.2250
     33 C         137.9725  142.8118  162.4170 C.ar    1  UNL1        0.0593
     34 C         138.1794  141.4220  161.8921 C.ar    1  UNL1        0.0254
     35 C         138.3869  140.2831  162.8460 C.ar    1  UNL1        0.0990
     36 N         138.5938  138.8933  162.3210 N.ar    1  UNL1       -0.2400
     37 C         138.8013  137.7545  163.2749 C.ar    1  UNL1        0.1281
     38 C         138.8019  138.0054  164.7538 C.ar    1  UNL1        0.1567
     39 F         139.0093  136.8666  165.7077 F       1  UNL1       -0.2028
     40 C         138.5949  139.3953  165.2788 C.ar    1  UNL1        0.0276
     41 C         138.3874  140.5341  164.3248 C.ar    1  UNL1        0.1002
     42 N         138.1805  141.9240  164.8497 N.ar    1  UNL1       -0.2104
     43 C         138.6262  144.9690  165.5359 C.3     1  UNL1        0.2542
     44 O         137.7661  144.4526  164.4208 O.3     1  UNL1       -0.4561
@<TRIPOS>BOND
     1    43    44    1
     2    44    32    1
     3    32    33   ar
     4    33    34   ar
     5    34    35   ar
     6    35    36   ar
     7    36    37   ar
     8    37    38   ar
     9    38    39    1
    10    38    40   ar
    11    40    31    1
    12    31    24    1
    13    24    25    1
    14    25    27    1
    15    27    28    1
    16    28    29    1
    17    28    30    2
    18    24     1    1
    19     1     2    1
    20     2     3    1
    21     3     4    1
    22     4     9    1
    23     9    11    1
    24    11    12    1
    25    12    13   ar
    26    13    14   ar
    27    14    15   ar
    28    15    16   ar
    29    16    17   ar
    30    16    18    1
    31    18    19   am
    32    19    20    2
    33    19    21    1
    34    21    22    1
    35     4     5    1
    36     5     6    1
    37     4     7    1
    38     7     8    1
    39    40    41   ar
    40    41    42   ar
    41    42    32   ar
    42    41    35   ar
    43     6     1    1
    44     8     1    1
    45    17    12   ar
    46    22    15    1
    47    25    26    1
    48     9    10    1
    49    18    23    1
@<TRIPOS>MOLECULE
*****
 44 49 0 0 0
SMALL
GASTEIGER

@<TRIPOS>ATOM
      1 C         142.9052  141.3267  166.3438 C.3     1  UNL1        0.1094
      2 C         143.1854  142.0496  165.0596 C.3     1  UNL1        0.0301
      3 C         143.7469  141.3032  163.8860 C.3     1  UNL1        0.0194
      4 C         144.0282  139.8339  163.9963 C.3     1  UNL1        0.0700
      5 C         143.7480  139.1110  165.2805 C.3     1  UNL1        0.0194
      6 C         143.1865  139.8575  166.4542 C.3     1  UNL1        0.0301
      7 C         143.7206  140.2003  164.6665 C.3     1  UNL1        0.1562
      8 O         143.2129  140.8751  165.7278 O.3     1  UNL1       -0.3557
      9 N         144.5897  139.0875  162.8226 N.3     1  UNL1       -0.2926
     10 H         145.4410  138.6279  163.1459 H       1  UNL1        0.1236
     11 C         143.7652  138.0389  162.1366 C.3     1  UNL1        0.1152
     12 C         142.2869  138.2344  161.9744 C.ar    1  UNL1        0.0765
     13 C         141.3329  137.5482  162.9066 C.ar    1  UNL1        0.0193
     14 C         139.8546  137.7437  162.7444 C.ar    1  UNL1        0.0411
     15 C         139.3303  138.6255  161.6500 C.ar    1  UNL1        0.1708
     16 C         140.2842  139.3117  160.7178 C.ar    1  UNL1        0.1682
     17 N         141.7626  139.1161  160.8800 N.ar    1  UNL1       -0.2304
     18 N         139.7599  140.1934  159.6234 N.am    1  UNL1       -0.2639
     19 C         138.2816  140.3889  159.4612 C.2     1  UNL1        0.2718
     20 O         137.7573  141.2706  158.3668 O.2     1  UNL1       -0.2707
     21 C         137.3276  139.7027  160.3934 C.3     1  UNL1        0.2898
     22 O         137.8519  138.8210  161.4878 O.3     1  UNL1       -0.4628
     23 H         140.3861  140.6438  159.0116 H       1  UNL1        0.1565
     24 C         142.3437  142.0731  167.5175 C.3     1  UNL1        0.1207
     25 N         143.2610  142.5916  168.5851 N.3     1  UNL1       -0.1399
     26 H         142.7788  143.3696  169.0352 H       1  UNL1        0.1680
     27 O         143.7279  141.6796  169.6806 O.3     1  UNL1       -0.3679
     28 C         142.8016  140.6383  170.2354 C.2     1  UNL1        0.3352
     29 C         141.6586  141.0447  171.1176 C.3     1  UNL1        0.1230
     30 O         143.0184  139.1906  169.9081 O.2     1  UNL1       -0.2484
     31 C         140.8649  142.3010  167.6236 C.3     1  UNL1        0.0517
     32 C         139.0444  143.9333  163.8459 C.ar    1  UNL1        0.2250
     33 C         138.0963  143.0906  163.0453 C.ar    1  UNL1        0.0593
     34 C         137.7550  141.7038  163.5040 C.ar    1  UNL1        0.0254
     35 C         138.3618  141.1597  164.7632 C.ar    1  UNL1        0.0990
     36 N         138.0205  139.7729  165.2219 N.ar    1  UNL1       -0.2400
     37 C         138.6273  139.2288  166.4811 C.ar    1  UNL1        0.1281
     38 C         139.5755  140.0715  167.2817 C.ar    1  UNL1        0.1567
     39 F         140.1823  139.5274  168.5409 F       1  UNL1       -0.2028
     40 C         139.9168  141.4583  166.8231 C.ar    1  UNL1        0.0276
     41 C         139.3099  142.0024  165.5638 C.ar    1  UNL1        0.1002
     42 N         139.6512  143.3892  165.1051 N.ar    1  UNL1       -0.2104
     43 C         139.9078  145.5436  161.9989 C.3     1  UNL1        0.2542
     44 O         139.3856  145.3201  163.3872 O.3     1  UNL1       -0.4561
@<TRIPOS>BOND
     1    43    44    1
     2    44    32    1
     3    32    33   ar
     4    33    34   ar
     5    34    35   ar
     6    35    36   ar
     7    36    37   ar
     8    37    38   ar
     9    38    39    1
    10    38    40   ar
    11    40    31    1
    12    31    24    1
    13    24    25    1
    14    25    27    1
    15    27    28    1
    16    28    29    1
    17    28    30    2
    18    24     1    1
    19     1     2    1
    20     2     3    1
    21     3     4    1
    22     4     9    1
    23     9    11    1
    24    11    12    1
    25    12    13   ar
    26    13    14   ar
    27    14    15   ar
    28    15    16   ar
    29    16    17   ar
    30    16    18    1
    31    18    19   am
    32    19    20    2
    33    19    21    1
    34    21    22    1
    35     4     5    1
    36     5     6    1
    37     4     7    1
    38     7     8    1
    39    40    41   ar
    40    41    42   ar
    41    42    32   ar
    42    41    35   ar
    43     6     1    1
    44     8     1    1
    45    17    12   ar
    46    22    15    1
    47    25    26    1
    48     9    10    1
    49    18    23    1
@<TRIPOS>MOLECULE
*****
 44 49 0 0 0
SMALL
GASTEIGER

@<TRIPOS>ATOM
      1 C         141.1416  140.2122  166.6745 C.3     1  UNL1        0.1094
      2 C         142.0788  139.1059  166.2901 C.3     1  UNL1        0.0301
      3 C         143.3201  139.4129  165.5060 C.3     1  UNL1        0.0194
      4 C         143.6242  140.8263  165.1061 C.3     1  UNL1        0.0700
      5 C         142.6871  141.9326  165.4905 C.3     1  UNL1        0.0194
      6 C         141.4458  141.6256  166.2747 C.3     1  UNL1        0.0301
      7 C         142.9319  140.7070  165.5355 C.3     1  UNL1        0.1562
      8 O         141.8094  140.4294  166.2445 O.3     1  UNL1       -0.3557
      9 N         144.8655  141.1333  164.3220 N.3     1  UNL1       -0.2926
     10 H         145.6245  140.6060  164.7537 H       1  UNL1        0.1236
     11 C         144.9158  140.8396  162.8519 C.3     1  UNL1        0.1152
     12 C         143.8098  141.3106  161.9548 C.ar    1  UNL1        0.0765
     13 C         143.6554  142.7731  161.6588 C.ar    1  UNL1        0.0193
     14 C         142.5493  143.2440  160.7617 C.ar    1  UNL1        0.0411
     15 C         141.5977  142.2527  160.1605 C.ar    1  UNL1        0.1708
     16 C         141.7520  140.7903  160.4564 C.ar    1  UNL1        0.1682
     17 N         142.8581  140.3192  161.3535 N.ar    1  UNL1       -0.2304
     18 N         140.8004  139.7989  159.8552 N.am    1  UNL1       -0.2639
     19 C         139.6943  140.2699  158.9580 C.2     1  UNL1        0.2718
     20 O         138.7427  139.2785  158.3568 O.2     1  UNL1       -0.2707
     21 C         139.5400  141.7323  158.6621 C.3     1  UNL1        0.2898
     22 O         140.4916  142.7237  159.2633 O.3     1  UNL1       -0.4628
     23 H         140.9017  138.8391  160.0494 H       1  UNL1        0.1565
     24 C         139.9003  139.9052  167.4586 C.3     1  UNL1        0.1207
     25 N         139.9399  139.9107  168.9581 N.3     1  UNL1       -0.1399
     26 H         140.9231  139.9513  169.2265 H       1  UNL1        0.1680
     27 O         139.2371  140.9927  169.7230 O.3     1  UNL1       -0.3679
     28 C         140.0210  142.1348  170.2984 C.2     1  UNL1        0.3352
     29 C         140.4326  143.2795  169.4207 C.3     1  UNL1        0.1230
     30 O         140.3933  142.1323  171.7514 O.2     1  UNL1       -0.2484
     31 C         138.6194  139.5928  166.7433 C.3     1  UNL1        0.0517
     32 C         137.8978  143.0999  164.0176 C.ar    1  UNL1        0.2250
     33 C         137.8974  142.9061  162.5302 C.ar    1  UNL1        0.0593
     34 C         138.1375  141.5433  161.9513 C.ar    1  UNL1        0.0254
     35 C         138.3781  140.3742  162.8599 C.ar    1  UNL1        0.0990
     36 N         138.6182  139.0114  162.2810 N.ar    1  UNL1       -0.2400
     37 C         138.8587  137.8424  163.1896 C.ar    1  UNL1        0.1281
     38 C         138.8591  138.0361  164.6770 C.ar    1  UNL1        0.1567
     39 F         139.0997  136.8671  165.5856 F       1  UNL1       -0.2028
     40 C         138.6190  139.3990  165.2559 C.ar    1  UNL1        0.0276
     41 C         138.3785  140.5680  164.3473 C.ar    1  UNL1        0.1002
     42 N         138.1383  141.9308  164.9261 N.ar    1  UNL1       -0.2104
     43 C         138.5671  144.9950  165.6639 C.3     1  UNL1        0.2542
     44 O         137.6577  144.4627  164.5965 O.3     1  UNL1       -0.4561
@<TRIPOS>BOND
     1    43    44    1
     2    44    32    1
     3    32    33   ar
     4    33    34   ar
     5    34    35   ar
     6    35    36   ar
     7    36    37   ar
     8    37    38   ar
     9    38    39    1
    10    38    40   ar
    11    40    31    1
    12    31    24    1
    13    24    25    1
    14    25    27    1
    15    27    28    1
    16    28    29    1
    17    28    30    2
    18    24     1    1
    19     1     2    1
    20     2     3    1
    21     3     4    1
    22     4     9    1
    23     9    11    1
    24    11    12    1
    25    12    13   ar
    26    13    14   ar
    27    14    15   ar
    28    15    16   ar
    29    16    17   ar
    30    16    18    1
    31    18    19   am
    32    19    20    2
    33    19    21    1
    34    21    22    1
    35     4     5    1
    36     5     6    1
    37     4     7    1
    38     7     8    1
    39    40    41   ar
    40    41    42   ar
    41    42    32   ar
    42    41    35   ar
    43     6     1    1
    44     8     1    1
    45    17    12   ar
    46    22    15    1
    47    25    26    1
    48     9    10    1
    49    18    23    1
@<TRIPOS>MOLECULE
*****
 44 49 0 0 0
SMALL
GASTEIGER

@<TRIPOS>ATOM
      1 C         140.1344  142.1228  166.3918 C.3     1  UNL1        0.1094
      2 C         139.4274  140.8001  166.3647 C.3     1  UNL1        0.0301
      3 C         138.3681  140.5368  165.3359 C.3     1  UNL1        0.0194
      4 C         138.0156  141.5962  164.3341 C.3     1  UNL1        0.0700
      5 C         138.7226  142.9189  164.3612 C.3     1  UNL1        0.0194
      6 C         139.7820  143.1822  165.3900 C.3     1  UNL1        0.0301
      7 C         138.6029  141.7867  164.8789 C.3     1  UNL1        0.1562
      8 O         139.5608  142.0248  165.8091 O.3     1  UNL1       -0.3557
      9 N         136.9563  141.3328  163.3054 N.3     1  UNL1       -0.2926
     10 H         136.3913  142.1796  163.2411 H       1  UNL1        0.1236
     11 C         137.3463  140.9651  161.9044 C.3     1  UNL1        0.1152
     12 C         138.5251  140.0690  161.6647 C.ar    1  UNL1        0.0765
     13 C         138.5799  138.7141  162.3062 C.ar    1  UNL1        0.0193
     14 C         139.7587  137.8181  162.0665 C.ar    1  UNL1        0.0411
     15 C         140.8826  138.2768  161.1853 C.ar    1  UNL1        0.1708
     16 C         140.8278  139.6316  160.5439 C.ar    1  UNL1        0.1682
     17 N         139.6490  140.5277  160.7836 N.ar    1  UNL1       -0.2304
     18 N         141.9517  140.0903  159.6628 N.am    1  UNL1       -0.2639
     19 C         143.1305  139.1942  159.4231 C.2     1  UNL1        0.2718
     20 O         144.2544  139.6529  158.5419 O.2     1  UNL1       -0.2707
     21 C         143.1854  137.8393  160.0645 C.3     1  UNL1        0.2898
     22 O         142.0614  137.3806  160.9457 O.3     1  UNL1       -0.4628
     23 H         141.9157  140.9795  159.2418 H       1  UNL1        0.1565
     24 C         141.1937  142.3862  167.4205 C.3     1  UNL1        0.1207
     25 N         140.8123  142.9150  168.7714 N.3     1  UNL1       -0.1399
     26 H         139.8165  142.7290  168.8900 H       1  UNL1        0.1680
     27 O         141.4989  142.3977  170.0006 O.3     1  UNL1       -0.3679
     28 C         140.7347  141.5783  170.9978 C.2     1  UNL1        0.3352
     29 C         140.3068  140.1830  170.6515 C.3     1  UNL1        0.1230
     30 O         140.3984  142.1541  172.3414 O.2     1  UNL1       -0.2484
     31 C         142.6345  142.1206  167.0985 C.3     1  UNL1        0.0517
     32 C         144.2643  142.7903  162.9578 C.ar    1  UNL1        0.2250
     33 C         144.6373  141.6178  162.0999 C.ar    1  UNL1        0.0593
     34 C         144.4670  140.2220  162.6222 C.ar    1  UNL1        0.0254
     35 C         143.9237  139.9988  164.0024 C.ar    1  UNL1        0.0990
     36 N         143.7535  138.6030  164.5247 N.ar    1  UNL1       -0.2400
     37 C         143.2102  138.3798  165.9049 C.ar    1  UNL1        0.1281
     38 C         142.8372  139.5523  166.7629 C.ar    1  UNL1        0.1567
     39 F         142.2939  139.3291  168.1431 F       1  UNL1       -0.2028
     40 C         143.0075  140.9481  166.2406 C.ar    1  UNL1        0.0276
     41 C         143.5508  141.1713  164.8603 C.ar    1  UNL1        0.1002
     42 N         143.7210  142.5671  164.3380 N.ar    1  UNL1       -0.2104
     43 C         143.7918  145.3378  163.1498 C.3     1  UNL1        0.2542
     44 O         144.4346  144.1861  162.4355 O.3     1  UNL1       -0.4561
@<TRIPOS>BOND
     1    43    44    1
     2    44    32    1
     3    32    33   ar
     4    33    34   ar
     5    34    35   ar
     6    35    36   ar
     7    36    37   ar
     8    37    38   ar
     9    38    39    1
    10    38    40   ar
    11    40    31    1
    12    31    24    1
    13    24    25    1
    14    25    27    1
    15    27    28    1
    16    28    29    1
    17    28    30    2
    18    24     1    1
    19     1     2    1
    20     2     3    1
    21     3     4    1
    22     4     9    1
    23     9    11    1
    24    11    12    1
    25    12    13   ar
    26    13    14   ar
    27    14    15   ar
    28    15    16   ar
    29    16    17   ar
    30    16    18    1
    31    18    19   am
    32    19    20    2
    33    19    21    1
    34    21    22    1
    35     4     5    1
    36     5     6    1
    37     4     7    1
    38     7     8    1
    39    40    41   ar
    40    41    42   ar
    41    42    32   ar
    42    41    35   ar
    43     6     1    1
    44     8     1    1
    45    17    12   ar
    46    22    15    1
    47    25    26    1
    48     9    10    1
    49    18    23    1
@<TRIPOS>MOLECULE
*****
 44 49 0 0 0
SMALL
GASTEIGER

@<TRIPOS>ATOM
      1 C         141.8373  142.6360  166.0114 C.3     1  UNL1        0.1094
      2 C         142.2985  143.3528  164.7771 C.3     1  UNL1        0.0301
      3 C         141.3348  144.1944  163.9943 C.3     1  UNL1        0.0194
      4 C         139.9097  144.3192  164.4457 C.3     1  UNL1        0.0700
      5 C         139.4485  143.6023  165.6800 C.3     1  UNL1        0.0194
      6 C         140.4123  142.7607  166.4628 C.3     1  UNL1        0.0301
      7 C         140.4011  143.8466  164.9073 C.3     1  UNL1        0.1562
      8 O         141.2726  143.0856  165.6152 O.3     1  UNL1       -0.3557
      9 N         138.9460  145.1608  163.6629 N.3     1  UNL1       -0.2926
     10 H         139.4902  145.6440  162.9482 H       1  UNL1        0.1236
     11 C         137.7858  144.5176  162.9626 C.3     1  UNL1        0.1152
     12 C         137.9738  143.2171  162.2392 C.ar    1  UNL1        0.0765
     13 C         137.5287  141.9337  162.8756 C.ar    1  UNL1        0.0193
     14 C         137.7167  140.6332  162.1522 C.ar    1  UNL1        0.0411
     15 C         138.3496  140.6160  160.7924 C.ar    1  UNL1        0.1708
     16 C         138.7946  141.8993  160.1560 C.ar    1  UNL1        0.1682
     17 N         138.6067  143.1999  160.8794 N.ar    1  UNL1       -0.2304
     18 N         139.4276  141.8820  158.7962 N.am    1  UNL1       -0.2639
     19 C         139.6155  140.5815  158.0728 C.2     1  UNL1        0.2718
     20 O         140.2485  140.5643  156.7130 O.2     1  UNL1       -0.2707
     21 C         139.1705  139.2981  158.7092 C.3     1  UNL1        0.2898
     22 O         138.5375  139.3154  160.0690 O.3     1  UNL1       -0.4628
     23 H         139.7197  142.7243  158.3785 H       1  UNL1        0.1565
     24 C         142.8010  141.7944  166.7942 C.3     1  UNL1        0.1207
     25 N         143.6201  142.4130  167.8880 N.3     1  UNL1       -0.1399
     26 H         143.5279  143.4240  167.7890 H       1  UNL1        0.1680
     27 O         143.3228  142.0895  169.3222 O.3     1  UNL1       -0.3679
     28 C         142.5480  143.0590  170.1647 C.2     1  UNL1        0.3352
     29 C         141.0536  143.1227  170.0524 C.3     1  UNL1        0.1230
     30 O         143.2676  143.9647  171.1195 O.2     1  UNL1       -0.2484
     31 C         142.9458  140.3341  166.4833 C.3     1  UNL1        0.0517
     32 C         139.4011  138.0255  164.9483 C.ar    1  UNL1        0.2250
     33 C         139.3719  137.5554  163.5242 C.ar    1  UNL1        0.0593
     34 C         140.5241  137.8549  162.6117 C.ar    1  UNL1        0.0254
     35 C         141.7057  138.6244  163.1233 C.ar    1  UNL1        0.0990
     36 N         142.8579  138.9238  162.2109 N.ar    1  UNL1       -0.2400
     37 C         144.0394  139.6933  162.7225 C.ar    1  UNL1        0.1281
     38 C         144.0688  140.1634  164.1467 C.ar    1  UNL1        0.1567
     39 F         145.2503  140.9329  164.6583 F       1  UNL1       -0.2028
     40 C         142.9165  139.8640  165.0591 C.ar    1  UNL1        0.0276
     41 C         141.7349  139.0945  164.5474 C.ar    1  UNL1        0.1002
     42 N         140.5827  138.7950  165.4599 N.ar    1  UNL1       -0.2104
     43 C         137.8706  138.7011  166.9360 C.3     1  UNL1        0.2542
     44 O         138.2489  137.7261  165.8608 O.3     1  UNL1       -0.4561
@<TRIPOS>BOND
     1    43    44    1
     2    44    32    1
     3    32    33   ar
     4    33    34   ar
     5    34    35   ar
     6    35    36   ar
     7    36    37   ar
     8    37    38   ar
     9    38    39    1
    10    38    40   ar
    11    40    31    1
    12    31    24    1
    13    24    25    1
    14    25    27    1
    15    27    28    1
    16    28    29    1
    17    28    30    2
    18    24     1    1
    19     1     2    1
    20     2     3    1
    21     3     4    1
    22     4     9    1
    23     9    11    1
    24    11    12    1
    25    12    13   ar
    26    13    14   ar
    27    14    15   ar
    28    15    16   ar
    29    16    17   ar
    30    16    18    1
    31    18    19   am
    32    19    20    2
    33    19    21    1
    34    21    22    1
    35     4     5    1
    36     5     6    1
    37     4     7    1
    38     7     8    1
    39    40    41   ar
    40    41    42   ar
    41    42    32   ar
    42    41    35   ar
    43     6     1    1
    44     8     1    1
    45    17    12   ar
    46    22    15    1
    47    25    26    1
    48     9    10    1
    49    18    23    1
@<TRIPOS>MOLECULE
*****
 44 49 0 0 0
SMALL
GASTEIGER

@<TRIPOS>ATOM
      1 C         141.5140  142.5543  166.4138 C.3     1  UNL1        0.1094
      2 C         140.1119  143.0610  166.5793 C.3     1  UNL1        0.0301
      3 C         139.5167  143.9716  165.5466 C.3     1  UNL1        0.0194
      4 C         140.3236  144.3755  164.3483 C.3     1  UNL1        0.0700
      5 C         141.7257  143.8687  164.1828 C.3     1  UNL1        0.0194
      6 C         142.3209  142.9581  165.2155 C.3     1  UNL1        0.0301
      7 C         140.6926  143.8746  164.8876 C.3     1  UNL1        0.1562
      8 O         141.2308  143.0512  165.8214 O.3     1  UNL1       -0.3557
      9 N         139.7284  145.2861  163.3156 N.3     1  UNL1       -0.2926
     10 H         140.4929  145.5829  162.7091 H       1  UNL1        0.1236
     11 C         138.6327  144.7893  162.4196 C.3     1  UNL1        0.1152
     12 C         138.6440  143.3688  161.9379 C.ar    1  UNL1        0.0765
     13 C         137.7037  142.3658  162.5379 C.ar    1  UNL1        0.0193
     14 C         137.7149  140.9454  162.0561 C.ar    1  UNL1        0.0411
     15 C         138.6665  140.5279  160.9743 C.ar    1  UNL1        0.1708
     16 C         139.6067  141.5308  160.3743 C.ar    1  UNL1        0.1682
     17 N         139.5955  142.9513  160.8561 N.ar    1  UNL1       -0.2304
     18 N         140.5582  141.1132  159.2925 N.am    1  UNL1       -0.2639
     19 C         140.5695  139.6928  158.8107 C.2     1  UNL1        0.2718
     20 O         141.5210  139.2752  157.7289 O.2     1  UNL1       -0.2707
     21 C         139.6292  138.6898  159.4107 C.3     1  UNL1        0.2898
     22 O         138.6777  139.1073  160.4925 O.3     1  UNL1       -0.4628
     23 H         141.1754  141.7715  158.8987 H       1  UNL1        0.1565
     24 C         142.1092  141.6437  167.4465 C.3     1  UNL1        0.1207
     25 N         142.7965  142.2206  168.6484 N.3     1  UNL1       -0.1399
     26 H         142.7162  143.2348  168.5750 H       1  UNL1        0.1680
     27 O         142.3358  141.8484  170.0265 O.3     1  UNL1       -0.3679
     28 C         141.1682  142.5589  170.6445 C.2     1  UNL1        0.3352
     29 C         140.5750  143.7578  169.9657 C.3     1  UNL1        0.1230
     30 O         140.5938  142.0706  171.9412 O.2     1  UNL1       -0.2484
     31 C         142.0171  140.1560  167.2772 C.3     1  UNL1        0.0517
     32 C         142.2571  138.1828  163.2401 C.ar    1  UNL1        0.2250
     33 C         141.0306  137.5719  162.6298 C.ar    1  UNL1        0.0593
     34 C         139.7241  137.6188  163.3652 C.ar    1  UNL1        0.0254
     35 C         139.6441  138.2765  164.7109 C.ar    1  UNL1        0.0990
     36 N         138.3376  138.3233  165.4463 N.ar    1  UNL1       -0.2400
     37 C         138.2575  138.9811  166.7920 C.ar    1  UNL1        0.1281
     38 C         139.4841  139.5920  167.4024 C.ar    1  UNL1        0.1567
     39 F         139.4040  140.2497  168.7481 F       1  UNL1       -0.2028
     40 C         140.7906  139.5452  166.6670 C.ar    1  UNL1        0.0276
     41 C         140.8706  138.8874  165.3212 C.ar    1  UNL1        0.1002
     42 N         142.1771  138.8406  164.5858 N.ar    1  UNL1       -0.2104
     43 C         143.5877  138.2579  161.0099 C.3     1  UNL1        0.2542
     44 O         143.5636  138.1360  162.5047 O.3     1  UNL1       -0.4561
@<TRIPOS>BOND
     1    43    44    1
     2    44    32    1
     3    32    33   ar
     4    33    34   ar
     5    34    35   ar
     6    35    36   ar
     7    36    37   ar
     8    37    38   ar
     9    38    39    1
    10    38    40   ar
    11    40    31    1
    12    31    24    1
    13    24    25    1
    14    25    27    1
    15    27    28    1
    16    28    29    1
    17    28    30    2
    18    24     1    1
    19     1     2    1
    20     2     3    1
    21     3     4    1
    22     4     9    1
    23     9    11    1
    24    11    12    1
    25    12    13   ar
    26    13    14   ar
    27    14    15   ar
    28    15    16   ar
    29    16    17   ar
    30    16    18    1
    31    18    19   am
    32    19    20    2
    33    19    21    1
    34    21    22    1
    35     4     5    1
    36     5     6    1
    37     4     7    1
    38     7     8    1
    39    40    41   ar
    40    41    42   ar
    41    42    32   ar
    42    41    35   ar
    43     6     1    1
    44     8     1    1
    45    17    12   ar
    46    22    15    1
    47    25    26    1
    48     9    10    1
    49    18    23    1
@<TRIPOS>MOLECULE
*****
 44 49 0 0 0
SMALL
GASTEIGER

@<TRIPOS>ATOM
      1 C         139.9234  142.2258  166.2646 C.3     1  UNL1        0.1094
      2 C         139.3342  140.8513  166.1486 C.3     1  UNL1        0.0301
      3 C         138.3639  140.5416  165.0475 C.3     1  UNL1        0.0194
      4 C         137.9827  141.6066  164.0622 C.3     1  UNL1        0.0700
      5 C         138.5719  142.9812  164.1782 C.3     1  UNL1        0.0194
      6 C         139.5422  143.2908  165.2794 C.3     1  UNL1        0.0301
      7 C         138.5184  141.8236  164.6487 C.3     1  UNL1        0.1562
      8 O         139.3958  142.1036  165.6444 O.3     1  UNL1       -0.3557
      9 N         137.0124  141.2970  162.9611 N.3     1  UNL1       -0.2926
     10 H         136.6007  142.1847  162.6732 H       1  UNL1        0.1236
     11 C         137.4875  140.6148  161.7125 C.3     1  UNL1        0.1152
     12 C         138.8119  140.9848  161.1134 C.ar    1  UNL1        0.0765
     13 C         139.9228  139.9778  161.0694 C.ar    1  UNL1        0.0193
     14 C         141.2472  140.3477  160.4703 C.ar    1  UNL1        0.0411
     15 C         141.4608  141.7247  159.9150 C.ar    1  UNL1        0.1708
     16 C         140.3500  142.7317  159.9589 C.ar    1  UNL1        0.1682
     17 N         139.0255  142.3618  160.5581 N.ar    1  UNL1       -0.2304
     18 N         140.5636  144.1087  159.4037 N.am    1  UNL1       -0.2639
     19 C         141.8880  144.4787  158.8045 C.2     1  UNL1        0.2718
     20 O         142.1015  145.8557  158.2492 O.2     1  UNL1       -0.2707
     21 C         142.9989  143.4716  158.7606 C.3     1  UNL1        0.2898
     22 O         142.7853  142.0947  159.3158 O.3     1  UNL1       -0.4628
     23 H         139.8345  144.7696  159.4325 H       1  UNL1        0.1565
     24 C         140.8937  142.5354  167.3657 C.3     1  UNL1        0.1207
     25 N         140.3958  143.0699  168.6759 N.3     1  UNL1       -0.1399
     26 H         139.3879  142.9146  168.6933 H       1  UNL1        0.1680
     27 O         140.9400  142.5258  169.9634 O.3     1  UNL1       -0.3679
     28 C         140.2511  141.3806  170.6444 C.2     1  UNL1        0.3352
     29 C         139.1938  140.6026  169.9185 C.3     1  UNL1        0.1230
     30 O         140.6193  141.0134  172.0513 O.2     1  UNL1       -0.2484
     31 C         142.3620  142.3106  167.1568 C.3     1  UNL1        0.0517
     32 C         143.9146  142.2540  162.9335 C.ar    1  UNL1        0.2250
     33 C         144.3980  140.9690  162.3293 C.ar    1  UNL1        0.0593
     34 C         144.3640  139.7029  163.1329 C.ar    1  UNL1        0.0254
     35 C         143.8465  139.7217  164.5407 C.ar    1  UNL1        0.0990
     36 N         143.8125  138.4556  165.3443 N.ar    1  UNL1       -0.2400
     37 C         143.2950  138.4745  166.7520 C.ar    1  UNL1        0.1281
     38 C         142.8115  139.7595  167.3562 C.ar    1  UNL1        0.1567
     39 F         142.2939  139.7784  168.7640 F       1  UNL1       -0.2028
     40 C         142.8455  141.0256  166.5526 C.ar    1  UNL1        0.0276
     41 C         143.3630  141.0067  165.1448 C.ar    1  UNL1        0.1002
     42 N         143.3971  142.2728  164.3412 N.ar    1  UNL1       -0.2104
     43 C         142.9278  144.5915  162.3747 C.3     1  UNL1        0.2542
     44 O         143.9486  143.5201  162.1299 O.3     1  UNL1       -0.4561
@<TRIPOS>BOND
     1    43    44    1
     2    44    32    1
     3    32    33   ar
     4    33    34   ar
     5    34    35   ar
     6    35    36   ar
     7    36    37   ar
     8    37    38   ar
     9    38    39    1
    10    38    40   ar
    11    40    31    1
    12    31    24    1
    13    24    25    1
    14    25    27    1
    15    27    28    1
    16    28    29    1
    17    28    30    2
    18    24     1    1
    19     1     2    1
    20     2     3    1
    21     3     4    1
    22     4     9    1
    23     9    11    1
    24    11    12    1
    25    12    13   ar
    26    13    14   ar
    27    14    15   ar
    28    15    16   ar
    29    16    17   ar
    30    16    18    1
    31    18    19   am
    32    19    20    2
    33    19    21    1
    34    21    22    1
    35     4     5    1
    36     5     6    1
    37     4     7    1
    38     7     8    1
    39    40    41   ar
    40    41    42   ar
    41    42    32   ar
    42    41    35   ar
    43     6     1    1
    44     8     1    1
    45    17    12   ar
    46    22    15    1
    47    25    26    1
    48     9    10    1
    49    18    23    1
@<TRIPOS>MOLECULE
*****
 44 49 0 0 0
SMALL
GASTEIGER

@<TRIPOS>ATOM
      1 C         138.2838  140.6518  165.0028 C.3     1  UNL1        0.1094
      2 C         138.9588  141.8743  165.5505 C.3     1  UNL1        0.0301
      3 C         138.8382  143.1841  164.8296 C.3     1  UNL1        0.0194
      4 C         138.0427  143.2715  163.5609 C.3     1  UNL1        0.0700
      5 C         137.3676  142.0491  163.0132 C.3     1  UNL1        0.0194
      6 C         137.4882  140.7392  163.7342 C.3     1  UNL1        0.0301
      7 C         138.0801  142.5318  163.9206 C.3     1  UNL1        0.1562
      8 O         138.1891  141.3474  164.5725 O.3     1  UNL1       -0.3557
      9 N         137.9221  144.5813  162.8400 N.3     1  UNL1       -0.2926
     10 H         137.3124  145.1730  163.4043 H       1  UNL1        0.1236
     11 C         139.1506  145.3877  162.5392 C.3     1  UNL1        0.1152
     12 C         140.5000  144.7328  162.5544 C.ar    1  UNL1        0.0765
     13 C         141.5520  145.2048  163.5138 C.ar    1  UNL1        0.0193
     14 C         142.9014  144.5499  163.5290 C.ar    1  UNL1        0.0411
     15 C         143.1988  143.4230  162.5847 C.ar    1  UNL1        0.1708
     16 C         142.1468  142.9510  161.6253 C.ar    1  UNL1        0.1682
     17 N         140.7974  143.6059  161.6101 N.ar    1  UNL1       -0.2304
     18 N         142.4442  141.8241  160.6811 N.am    1  UNL1       -0.2639
     19 C         143.7936  141.1691  160.6962 C.2     1  UNL1        0.2718
     20 O         144.0909  140.0422  159.7520 O.2     1  UNL1       -0.2707
     21 C         144.8456  141.6411  161.6557 C.3     1  UNL1        0.2898
     22 O         144.5482  142.7681  162.6000 O.3     1  UNL1       -0.4628
     23 H         141.7537  141.5143  160.0514 H       1  UNL1        0.1565
     24 C         138.4043  139.3420  165.7238 C.3     1  UNL1        0.1207
     25 N         138.0959  139.2615  167.1895 N.3     1  UNL1       -0.1399
     26 H         137.7447  138.3201  167.3652 H       1  UNL1        0.1680
     27 O         139.1764  139.5159  168.1983 O.3     1  UNL1       -0.3679
     28 C         138.8542  140.2267  169.4793 C.2     1  UNL1        0.3352
     29 C         139.5437  141.5156  169.8158 C.3     1  UNL1        0.1230
     30 O         137.8424  139.6486  170.4238 O.2     1  UNL1       -0.2484
     31 C         138.8333  138.1126  164.9789 C.3     1  UNL1        0.0517
     32 C         143.0568  138.9048  166.3147 C.ar    1  UNL1        0.2250
     33 C         144.1604  138.9881  165.3023 C.ar    1  UNL1        0.0593
     34 C         143.8562  138.8074  163.8447 C.ar    1  UNL1        0.0254
     35 C         142.4484  138.5433  163.3994 C.ar    1  UNL1        0.0990
     36 N         142.1442  138.3626  161.9417 N.ar    1  UNL1       -0.2400
     37 C         140.7364  138.0985  161.4964 C.ar    1  UNL1        0.1281
     38 C         139.6327  138.0152  162.5089 C.ar    1  UNL1        0.1567
     39 F         138.2249  137.7511  162.0636 F       1  UNL1       -0.2028
     40 C         139.9369  138.1959  163.9665 C.ar    1  UNL1        0.0276
     41 C         141.3448  138.4600  164.4118 C.ar    1  UNL1        0.1002
     42 N         141.6490  138.6407  165.8695 N.ar    1  UNL1       -0.2104
     43 C         142.6946  140.1836  168.5471 C.3     1  UNL1        0.2542
     44 O         143.3609  139.0855  167.7724 O.3     1  UNL1       -0.4561
@<TRIPOS>BOND
     1    43    44    1
     2    44    32    1
     3    32    33   ar
     4    33    34   ar
     5    34    35   ar
     6    35    36   ar
     7    36    37   ar
     8    37    38   ar
     9    38    39    1
    10    38    40   ar
    11    40    31    1
    12    31    24    1
    13    24    25    1
    14    25    27    1
    15    27    28    1
    16    28    29    1
    17    28    30    2
    18    24     1    1
    19     1     2    1
    20     2     3    1
    21     3     4    1
    22     4     9    1
    23     9    11    1
    24    11    12    1
    25    12    13   ar
    26    13    14   ar
    27    14    15   ar
    28    15    16   ar
    29    16    17   ar
    30    16    18    1
    31    18    19   am
    32    19    20    2
    33    19    21    1
    34    21    22    1
    35     4     5    1
    36     5     6    1
    37     4     7    1
    38     7     8    1
    39    40    41   ar
    40    41    42   ar
    41    42    32   ar
    42    41    35   ar
    43     6     1    1
    44     8     1    1
    45    17    12   ar
    46    22    15    1
    47    25    26    1
    48     9    10    1
    49    18    23    1
@<TRIPOS>MOLECULE
*****
 44 49 0 0 0
SMALL
GASTEIGER

@<TRIPOS>ATOM
      1 C         140.5044  139.7128  161.0520 C.3     1  UNL1        0.1094
      2 C         141.2398  138.5115  161.5680 C.3     1  UNL1        0.0301
      3 C         142.6890  138.6215  161.9390 C.3     1  UNL1        0.0194
      4 C         143.4028  139.9328  161.7941 C.3     1  UNL1        0.0700
      5 C         142.6675  141.1341  161.2781 C.3     1  UNL1        0.0194
      6 C         141.2182  141.0240  160.9071 C.3     1  UNL1        0.0301
      7 C         142.6084  139.9213  161.5780 C.3     1  UNL1        0.1562
      8 O         141.2980  139.8219  161.2425 O.3     1  UNL1       -0.3557
      9 N         144.8520  140.0428  162.1651 N.3     1  UNL1       -0.2926
     10 H         145.2893  140.6464  161.4687 H       1  UNL1        0.1236
     11 C         145.2432  140.5795  163.5101 C.3     1  UNL1        0.1152
     12 C         144.3678  140.3275  164.7017 C.ar    1  UNL1        0.0765
     13 C         144.2386  138.9403  165.2577 C.ar    1  UNL1        0.0193
     14 C         143.3631  138.6883  166.4493 C.ar    1  UNL1        0.0411
     15 C         142.6167  139.8236  167.0850 C.ar    1  UNL1        0.1708
     16 C         142.7458  141.2107  166.5291 C.ar    1  UNL1        0.1682
     17 N         143.6214  141.4627  165.3375 N.ar    1  UNL1       -0.2304
     18 N         141.9995  142.3460  167.1649 N.am    1  UNL1       -0.2639
     19 C         141.1240  142.0940  168.3565 C.2     1  UNL1        0.2718
     20 O         140.3776  143.2292  168.9922 O.2     1  UNL1       -0.2707
     21 C         140.9948  140.7068  168.9124 C.3     1  UNL1        0.2898
     22 O         141.7412  139.5716  168.2767 O.3     1  UNL1       -0.4628
     23 H         142.0842  143.2564  166.8000 H       1  UNL1        0.1565
     24 C         139.0552  139.6028  160.6810 C.3     1  UNL1        0.1207
     25 N         138.6610  138.9874  159.3711 N.3     1  UNL1       -0.1399
     26 H         137.6858  138.7023  159.4613 H       1  UNL1        0.1680
     27 O         138.7632  139.7867  158.1059 O.3     1  UNL1       -0.3679
     28 C         137.7970  140.9039  157.8445 C.2     1  UNL1        0.3352
     29 C         138.1407  142.3045  158.2568 C.3     1  UNL1        0.1230
     30 O         136.4872  140.6205  157.1708 O.2     1  UNL1       -0.2484
     31 C         138.0001  140.1082  161.6199 C.3     1  UNL1        0.0517
     32 C         138.6370  144.3517  162.9753 C.ar    1  UNL1        0.2250
     33 C         138.9817  144.6380  164.4068 C.ar    1  UNL1        0.0593
     34 C         139.1141  143.5099  165.3864 C.ar    1  UNL1        0.0254
     35 C         138.9018  142.0954  164.9347 C.ar    1  UNL1        0.0990
     36 N         139.0343  140.9673  165.9143 N.ar    1  UNL1       -0.2400
     37 C         138.8220  139.5528  165.4625 C.ar    1  UNL1        0.1281
     38 C         138.4773  139.2664  164.0310 C.ar    1  UNL1        0.1567
     39 F         138.2650  137.8519  163.5792 F       1  UNL1       -0.2028
     40 C         138.3448  140.3945  163.0513 C.ar    1  UNL1        0.0276
     41 C         138.5571  141.8091  163.5032 C.ar    1  UNL1        0.1002
     42 N         138.4247  142.9372  162.5235 N.ar    1  UNL1       -0.2104
     43 C         139.7126  146.2770  161.6020 C.3     1  UNL1        0.2542
     44 O         138.5046  145.4798  161.9956 O.3     1  UNL1       -0.4561
@<TRIPOS>BOND
     1    43    44    1
     2    44    32    1
     3    32    33   ar
     4    33    34   ar
     5    34    35   ar
     6    35    36   ar
     7    36    37   ar
     8    37    38   ar
     9    38    39    1
    10    38    40   ar
    11    40    31    1
    12    31    24    1
    13    24    25    1
    14    25    27    1
    15    27    28    1
    16    28    29    1
    17    28    30    2
    18    24     1    1
    19     1     2    1
    20     2     3    1
    21     3     4    1
    22     4     9    1
    23     9    11    1
    24    11    12    1
    25    12    13   ar
    26    13    14   ar
    27    14    15   ar
    28    15    16   ar
    29    16    17   ar
    30    16    18    1
    31    18    19   am
    32    19    20    2
    33    19    21    1
    34    21    22    1
    35     4     5    1
    36     5     6    1
    37     4     7    1
    38     7     8    1
    39    40    41   ar
    40    41    42   ar
    41    42    32   ar
    42    41    35   ar
    43     6     1    1
    44     8     1    1
    45    17    12   ar
    46    22    15    1
    47    25    26    1
    48     9    10    1
    49    18    23    1
