@<TRIPOS>MOLECULE
*****
 28 31 0 0 0
SMALL
GASTEIGER

@<TRIPOS>ATOM
      1 C         141.7220  142.7138  165.0998 C.ar    1  UNL1        0.1400
      2 N         140.6914  142.8753  166.1776 N.ar    1  UNL1       -0.2271
      3 C         140.9971  141.8864  167.2632 C.ar    1  UNL1        0.0983
      4 C         140.3225  141.5896  168.5697 C.ar    1  UNL1        0.0161
      5 C         140.8675  140.5202  169.4693 C.ar    1  UNL1       -0.0242
      6 C         140.1929  140.2235  170.7758 C.3     1  UNL1        0.0307
      7 C         142.0872  139.7476  169.0624 C.ar    1  UNL1       -0.0243
      8 C         142.6322  138.6781  169.9621 C.3     1  UNL1        0.0307
      9 C         142.7617  140.0443  167.7560 C.ar    1  UNL1        0.0142
     10 C         142.2167  141.1137  166.8564 C.ar    1  UNL1        0.0788
     11 N         142.6647  141.6251  165.5193 N.ar    1  UNL1       -0.3075
     12 C         142.4026  144.8748  163.8282 C.3     1  UNL1        0.0342
     13 C         141.7969  143.5026  163.8261 C.2     1  UNL1        0.0123
     14 C         141.2659  142.9191  162.5503 C.2     1  UNL1        0.0003
     15 C         141.3407  143.7078  161.2766 C.ar    1  UNL1        0.0190
     16 C         140.2492  144.6762  160.9290 C.ar    1  UNL1        0.0031
     17 C         140.3240  145.4650  159.6553 C.ar    1  UNL1        0.0207
     18 C         141.4904  145.2853  158.7293 C.ar    1  UNL1        0.0989
     19 N         142.5818  144.3170  159.0770 N.ar    1  UNL1       -0.2423
     20 C         142.5070  143.5282  160.3507 C.ar    1  UNL1        0.0988
     21 C         143.8478  141.1339  164.7388 C.3     1  UNL1        0.1342
     22 C         143.6498  140.1842  163.5949 C.ar    1  UNL1        0.0005
     23 C         142.7533  138.9924  163.7562 C.ar    1  UNL1       -0.0015
     24 C         142.5552  138.0425  162.6123 C.ar    1  UNL1        0.0111
     25 C         143.2537  138.2844  161.3070 C.ar    1  UNL1        0.0577
     26 CL        143.0557  137.3346  160.1631 Cl      1  UNL1       -0.0822
     27 C         144.1502  139.4762  161.1458 C.ar    1  UNL1        0.0111
     28 C         144.3483  140.4260  162.2897 C.ar    1  UNL1       -0.0015
@<TRIPOS>BOND
     1    12    13    1
     2    13    14    2
     3    14    15    1
     4    15    16   ar
     5    16    17   ar
     6    17    18   ar
     7    18    19   ar
     8    19    20   ar
     9    13     1    1
    10     1     2   ar
    11     2     3   ar
    12     3     4   ar
    13     4     5   ar
    14     5     6    1
    15     5     7   ar
    16     7     8    1
    17     7     9   ar
    18     9    10   ar
    19    10    11   ar
    20    11    21    1
    21    21    22    1
    22    22    23   ar
    23    23    24   ar
    24    24    25   ar
    25    25    26    1
    26    25    27   ar
    27    27    28   ar
    28    20    15   ar
    29    11     1   ar
    30    28    22   ar
    31    10     3   ar
@<TRIPOS>MOLECULE
*****
 28 31 0 0 0
SMALL
GASTEIGER

@<TRIPOS>ATOM
      1 C         141.2220  138.3304  162.4281 C.ar    1  UNL1        0.1400
      2 N         142.3947  138.0154  161.5475 N.ar    1  UNL1       -0.2271
      3 C         141.9395  138.1014  160.1209 C.ar    1  UNL1        0.0983
      4 C         142.6612  137.8921  158.8227 C.ar    1  UNL1        0.0161
      5 C         141.9288  138.0510  157.5234 C.ar    1  UNL1       -0.0242
      6 C         142.6505  137.8416  156.2251 C.3     1  UNL1        0.0307
      7 C         140.4747  138.4193  157.5222 C.ar    1  UNL1       -0.0243
      8 C         139.7423  138.5782  156.2228 C.3     1  UNL1        0.0307
      9 C         139.7530  138.6286  158.8204 C.ar    1  UNL1        0.0142
     10 C         140.4854  138.4697  160.1197 C.ar    1  UNL1        0.0788
     11 N         140.0420  138.6112  161.5457 N.ar    1  UNL1       -0.3075
     12 C         140.6345  137.2206  164.7026 C.3     1  UNL1        0.0342
     13 C         141.2282  138.3596  163.9278 C.2     1  UNL1        0.0123
     14 C         141.8280  139.5277  164.6528 C.2     1  UNL1        0.0003
     15 C         141.8342  139.5568  166.1525 C.ar    1  UNL1        0.0190
     16 C         140.6695  140.1404  166.8961 C.ar    1  UNL1        0.0031
     17 C         140.6757  140.1695  168.3958 C.ar    1  UNL1        0.0207
     18 C         141.8466  139.6151  169.1519 C.ar    1  UNL1        0.0989
     19 N         143.0113  139.0316  168.4083 N.ar    1  UNL1       -0.2423
     20 C         143.0051  139.0024  166.9086 C.ar    1  UNL1        0.0988
     21 C         138.6610  138.9705  162.0080 C.3     1  UNL1        0.1342
     22 C         138.4003  140.3162  162.6171 C.ar    1  UNL1        0.0005
     23 C         138.3132  140.4606  164.1077 C.ar    1  UNL1       -0.0015
     24 C         138.0525  141.8063  164.7169 C.ar    1  UNL1        0.0111
     25 C         137.8789  143.0076  163.8355 C.ar    1  UNL1        0.0577
     26 CL        137.6182  144.3533  164.4447 Cl      1  UNL1       -0.0822
     27 C         137.9660  142.8632  162.3451 C.ar    1  UNL1        0.0111
     28 C         138.2267  141.5175  161.7358 C.ar    1  UNL1       -0.0015
@<TRIPOS>BOND
     1    12    13    1
     2    13    14    2
     3    14    15    1
     4    15    16   ar
     5    16    17   ar
     6    17    18   ar
     7    18    19   ar
     8    19    20   ar
     9    13     1    1
    10     1     2   ar
    11     2     3   ar
    12     3     4   ar
    13     4     5   ar
    14     5     6    1
    15     5     7   ar
    16     7     8    1
    17     7     9   ar
    18     9    10   ar
    19    10    11   ar
    20    11    21    1
    21    21    22    1
    22    22    23   ar
    23    23    24   ar
    24    24    25   ar
    25    25    26    1
    26    25    27   ar
    27    27    28   ar
    28    20    15   ar
    29    11     1   ar
    30    28    22   ar
    31    10     3   ar
@<TRIPOS>MOLECULE
*****
 28 31 0 0 0
SMALL
GASTEIGER

@<TRIPOS>ATOM
      1 C         141.9783  140.1048  164.8081 C.ar    1  UNL1        0.1400
      2 N         142.9833  140.9416  165.5428 N.ar    1  UNL1       -0.2271
      3 C         142.3826  141.3386  166.8587 C.ar    1  UNL1        0.0983
      4 C         142.9110  142.1622  167.9955 C.ar    1  UNL1        0.0161
      5 C         142.0632  142.3945  169.2109 C.ar    1  UNL1       -0.0242
      6 C         142.5916  143.2181  170.3478 C.3     1  UNL1        0.0307
      7 C         140.6869  141.8032  169.2894 C.ar    1  UNL1       -0.0243
      8 C         139.8390  142.0355  170.5048 C.3     1  UNL1        0.0307
      9 C         140.1584  140.9796  168.1525 C.ar    1  UNL1        0.0142
     10 C         141.0063  140.7473  166.9372 C.ar    1  UNL1        0.0788
     11 N         140.7565  139.9848  165.6699 N.ar    1  UNL1       -0.3075
     12 C         142.4562  138.0301  163.3192 C.3     1  UNL1        0.0342
     13 C         142.1628  139.4952  163.4500 C.2     1  UNL1        0.0123
     14 C         142.0538  140.3508  162.2228 C.2     1  UNL1        0.0003
     15 C         142.2383  139.7411  160.8647 C.ar    1  UNL1        0.0190
     16 C         141.0631  139.1546  160.1400 C.ar    1  UNL1        0.0031
     17 C         141.2476  138.5450  158.7820 C.ar    1  UNL1        0.0207
     18 C         142.6072  138.5219  158.1486 C.ar    1  UNL1        0.0989
     19 N         143.7822  139.1084  158.8733 N.ar    1  UNL1       -0.2423
     20 C         143.5977  139.7180  160.2313 C.ar    1  UNL1        0.0988
     21 C         139.5045  139.2341  165.3249 C.3     1  UNL1        0.1342
     22 C         138.8813  139.3971  163.9703 C.ar    1  UNL1        0.0005
     23 C         138.4737  140.7589  163.4913 C.ar    1  UNL1       -0.0015
     24 C         137.8505  140.9221  162.1367 C.ar    1  UNL1        0.0111
     25 C         137.6348  139.7234  161.2611 C.ar    1  UNL1        0.0577
     26 CL        137.0116  139.8866  159.9065 Cl      1  UNL1       -0.0822
     27 C         138.0424  138.3617  161.7401 C.ar    1  UNL1        0.0111
     28 C         138.6656  138.1985  163.0947 C.ar    1  UNL1       -0.0015
@<TRIPOS>BOND
     1    12    13    1
     2    13    14    2
     3    14    15    1
     4    15    16   ar
     5    16    17   ar
     6    17    18   ar
     7    18    19   ar
     8    19    20   ar
     9    13     1    1
    10     1     2   ar
    11     2     3   ar
    12     3     4   ar
    13     4     5   ar
    14     5     6    1
    15     5     7   ar
    16     7     8    1
    17     7     9   ar
    18     9    10   ar
    19    10    11   ar
    20    11    21    1
    21    21    22    1
    22    22    23   ar
    23    23    24   ar
    24    24    25   ar
    25    25    26    1
    26    25    27   ar
    27    27    28   ar
    28    20    15   ar
    29    11     1   ar
    30    28    22   ar
    31    10     3   ar
@<TRIPOS>MOLECULE
*****
 28 31 0 0 0
SMALL
GASTEIGER

@<TRIPOS>ATOM
      1 C         142.5282  141.5062  164.2679 C.ar    1  UNL1        0.1400
      2 N         143.8629  141.6852  163.6071 N.ar    1  UNL1       -0.2271
      3 C         143.6295  141.8957  162.1404 C.ar    1  UNL1        0.0983
      4 C         144.5726  142.1256  160.9968 C.ar    1  UNL1        0.0161
      5 C         144.0367  142.3066  159.6076 C.ar    1  UNL1       -0.0242
      6 C         144.9798  142.5365  158.4640 C.3     1  UNL1        0.0307
      7 C         142.5578  142.2578  159.3619 C.ar    1  UNL1       -0.0243
      8 C         142.0220  142.4388  157.9725 C.3     1  UNL1        0.0307
      9 C         141.6147  142.0279  160.5054 C.ar    1  UNL1        0.0142
     10 C         142.1506  141.8469  161.8946 C.ar    1  UNL1        0.0788
     11 N         141.4700  141.6062  163.2095 N.ar    1  UNL1       -0.3075
     12 C         142.5290  139.9088  166.3168 C.3     1  UNL1        0.0342
     13 C         142.2931  141.2690  165.7302 C.2     1  UNL1        0.0123
     14 C         141.8221  142.3920  166.6060 C.2     1  UNL1        0.0003
     15 C         141.5870  142.1547  168.0683 C.ar    1  UNL1        0.0190
     16 C         140.2244  141.7580  168.5542 C.ar    1  UNL1        0.0031
     17 C         139.9892  141.5207  170.0165 C.ar    1  UNL1        0.0207
     18 C         141.1167  141.6803  170.9930 C.ar    1  UNL1        0.0989
     19 N         142.4792  142.0770  170.5071 N.ar    1  UNL1       -0.2423
     20 C         142.7143  142.3143  169.0448 C.ar    1  UNL1        0.0988
     21 C         139.9907  141.4864  163.4277 C.3     1  UNL1        0.1342
     22 C         139.4400  140.3379  164.2196 C.ar    1  UNL1        0.0005
     23 C         138.6246  140.5987  165.4514 C.ar    1  UNL1       -0.0015
     24 C         138.0738  139.4502  166.2435 C.ar    1  UNL1        0.0111
     25 C         138.3383  138.0406  165.8037 C.ar    1  UNL1        0.0577
     26 CL        137.7874  136.8921  166.5958 Cl      1  UNL1       -0.0822
     27 C         139.1536  137.7798  164.5720 C.ar    1  UNL1        0.0111
     28 C         139.7044  138.9283  163.7800 C.ar    1  UNL1       -0.0015
@<TRIPOS>BOND
     1    12    13    1
     2    13    14    2
     3    14    15    1
     4    15    16   ar
     5    16    17   ar
     6    17    18   ar
     7    18    19   ar
     8    19    20   ar
     9    13     1    1
    10     1     2   ar
    11     2     3   ar
    12     3     4   ar
    13     4     5   ar
    14     5     6    1
    15     5     7   ar
    16     7     8    1
    17     7     9   ar
    18     9    10   ar
    19    10    11   ar
    20    11    21    1
    21    21    22    1
    22    22    23   ar
    23    23    24   ar
    24    24    25   ar
    25    25    26    1
    26    25    27   ar
    27    27    28   ar
    28    20    15   ar
    29    11     1   ar
    30    28    22   ar
    31    10     3   ar
@<TRIPOS>MOLECULE
*****
 28 31 0 0 0
SMALL
GASTEIGER

@<TRIPOS>ATOM
      1 C         140.6436  139.4152  164.7646 C.ar    1  UNL1        0.1400
      2 N         141.7527  138.8608  165.6086 N.ar    1  UNL1       -0.2271
      3 C         141.6967  139.5336  166.9481 C.ar    1  UNL1        0.0983
      4 C         142.5394  139.3881  168.1804 C.ar    1  UNL1        0.0161
      5 C         142.2382  140.2129  169.3965 C.ar    1  UNL1       -0.0242
      6 C         143.0810  140.0674  170.6289 C.3     1  UNL1        0.0307
      7 C         141.0944  141.1831  169.3804 C.ar    1  UNL1       -0.0243
      8 C         140.7933  142.0079  170.5966 C.3     1  UNL1        0.0307
      9 C         140.2517  141.3286  168.1480 C.ar    1  UNL1        0.0142
     10 C         140.5529  140.5039  166.9319 C.ar    1  UNL1        0.0788
     11 N         139.9020  140.4307  165.5824 N.ar    1  UNL1       -0.3075
     12 C         139.6904  137.6973  163.0646 C.3     1  UNL1        0.0342
     13 C         140.3309  139.0230  163.3509 C.2     1  UNL1        0.0123
     14 C         140.6588  139.9566  162.2236 C.2     1  UNL1        0.0003
     15 C         140.3461  139.5644  160.8099 C.ar    1  UNL1        0.0190
     16 C         141.3803  138.8634  159.9799 C.ar    1  UNL1        0.0031
     17 C         141.0677  138.4712  158.5662 C.ar    1  UNL1        0.0207
     18 C         139.7207  138.7801  157.9826 C.ar    1  UNL1        0.0989
     19 N         138.6866  139.4811  158.8127 N.ar    1  UNL1       -0.2423
     20 C         138.9993  139.8732  160.2263 C.ar    1  UNL1        0.0988
     21 C         138.7176  141.2323  165.1302 C.3     1  UNL1        0.1342
     22 C         138.9210  142.4894  164.3377 C.ar    1  UNL1        0.0005
     23 C         137.7579  143.1365  163.6459 C.ar    1  UNL1       -0.0015
     24 C         137.9613  144.3937  162.8534 C.ar    1  UNL1        0.0111
     25 C         139.3279  145.0038  162.7527 C.ar    1  UNL1        0.0577
     26 CL        139.5314  146.2610  161.9601 Cl      1  UNL1       -0.0822
     27 C         140.4910  144.3568  163.4444 C.ar    1  UNL1        0.0111
     28 C         140.2876  143.0997  164.2370 C.ar    1  UNL1       -0.0015
@<TRIPOS>BOND
     1    12    13    1
     2    13    14    2
     3    14    15    1
     4    15    16   ar
     5    16    17   ar
     6    17    18   ar
     7    18    19   ar
     8    19    20   ar
     9    13     1    1
    10     1     2   ar
    11     2     3   ar
    12     3     4   ar
    13     4     5   ar
    14     5     6    1
    15     5     7   ar
    16     7     8    1
    17     7     9   ar
    18     9    10   ar
    19    10    11   ar
    20    11    21    1
    21    21    22    1
    22    22    23   ar
    23    23    24   ar
    24    24    25   ar
    25    25    26    1
    26    25    27   ar
    27    27    28   ar
    28    20    15   ar
    29    11     1   ar
    30    28    22   ar
    31    10     3   ar
@<TRIPOS>MOLECULE
*****
 28 31 0 0 0
SMALL
GASTEIGER

@<TRIPOS>ATOM
      1 C         141.8351  142.4043  163.1742 C.ar    1  UNL1        0.1400
      2 N         142.0192  143.7992  162.6544 N.ar    1  UNL1       -0.2271
      3 C         141.3747  143.8788  161.3022 C.ar    1  UNL1        0.0983
      4 C         141.2429  145.0029  160.3178 C.ar    1  UNL1        0.0161
      5 C         140.5288  144.7811  159.0175 C.ar    1  UNL1       -0.0242
      6 C         140.3969  145.9052  158.0330 C.3     1  UNL1        0.0307
      7 C         139.9464  143.4353  158.7017 C.ar    1  UNL1       -0.0243
      8 C         139.2322  143.2136  157.4013 C.3     1  UNL1        0.0307
      9 C         140.0782  142.3113  159.6861 C.ar    1  UNL1        0.0142
     10 C         140.7923  142.5331  160.9864 C.ar    1  UNL1        0.0788
     11 N         141.0769  141.6218  162.1434 N.ar    1  UNL1       -0.3075
     12 C         143.6363  141.1624  164.5754 C.3     1  UNL1        0.0342
     13 C         142.3235  141.8833  164.4934 C.2     1  UNL1        0.0123
     14 C         141.4992  142.0834  165.7304 C.2     1  UNL1        0.0003
     15 C         141.9876  141.5624  167.0495 C.ar    1  UNL1        0.0190
     16 C         141.5700  140.2003  167.5191 C.ar    1  UNL1        0.0031
     17 C         142.0584  139.6794  168.8382 C.ar    1  UNL1        0.0207
     18 C         142.9644  140.5205  169.6878 C.ar    1  UNL1        0.0989
     19 N         143.3820  141.8826  169.2182 N.ar    1  UNL1       -0.2423
     20 C         142.8936  142.4035  167.8991 C.ar    1  UNL1        0.0988
     21 C         140.6739  140.1809  162.2506 C.3     1  UNL1        0.1342
     22 C         139.9018  139.7049  163.4452 C.ar    1  UNL1        0.0005
     23 C         138.8010  140.5513  164.0127 C.ar    1  UNL1       -0.0015
     24 C         138.0288  140.0753  165.2073 C.ar    1  UNL1        0.0111
     25 C         138.3574  138.7529  165.8345 C.ar    1  UNL1        0.0577
     26 CL        137.5852  138.2770  167.0292 Cl      1  UNL1       -0.0822
     27 C         139.4582  137.9066  165.2671 C.ar    1  UNL1        0.0111
     28 C         140.2303  138.3826  164.0724 C.ar    1  UNL1       -0.0015
@<TRIPOS>BOND
     1    12    13    1
     2    13    14    2
     3    14    15    1
     4    15    16   ar
     5    16    17   ar
     6    17    18   ar
     7    18    19   ar
     8    19    20   ar
     9    13     1    1
    10     1     2   ar
    11     2     3   ar
    12     3     4   ar
    13     4     5   ar
    14     5     6    1
    15     5     7   ar
    16     7     8    1
    17     7     9   ar
    18     9    10   ar
    19    10    11   ar
    20    11    21    1
    21    21    22    1
    22    22    23   ar
    23    23    24   ar
    24    24    25   ar
    25    25    26    1
    26    25    27   ar
    27    27    28   ar
    28    20    15   ar
    29    11     1   ar
    30    28    22   ar
    31    10     3   ar
@<TRIPOS>MOLECULE
*****
 28 31 0 0 0
SMALL
GASTEIGER

@<TRIPOS>ATOM
      1 C         140.3258  142.8019  163.1653 C.ar    1  UNL1        0.1400
      2 N         140.3843  144.2001  162.6252 N.ar    1  UNL1       -0.2271
      3 C         140.8602  144.1287  161.2045 C.ar    1  UNL1        0.0983
      4 C         141.1093  145.1906  160.1749 C.ar    1  UNL1        0.0161
      5 C         141.5942  144.8103  158.8073 C.ar    1  UNL1       -0.0242
      6 C         141.8434  145.8722  157.7777 C.3     1  UNL1        0.0307
      7 C         141.8299  143.3679  158.4694 C.ar    1  UNL1       -0.0243
      8 C         142.3147  142.9876  157.1018 C.3     1  UNL1        0.0307
      9 C         141.5807  142.3060  159.4990 C.ar    1  UNL1        0.0142
     10 C         141.0958  142.6863  160.8665 C.ar    1  UNL1        0.0788
     11 N         140.7656  141.8664  162.0784 N.ar    1  UNL1       -0.3075
     12 C         138.4588  142.1190  164.8380 C.3     1  UNL1        0.0342
     13 C         139.9020  142.4084  164.5494 C.2     1  UNL1        0.0123
     14 C         140.9214  142.3042  165.6447 C.2     1  UNL1        0.0003
     15 C         140.4976  141.9106  167.0288 C.ar    1  UNL1        0.0190
     16 C         140.0734  140.4997  167.3105 C.ar    1  UNL1        0.0031
     17 C         139.6496  140.1062  168.6945 C.ar    1  UNL1        0.0207
     18 C         139.6500  141.1236  169.7968 C.ar    1  UNL1        0.0989
     19 N         140.0742  142.5345  169.5150 N.ar    1  UNL1       -0.2423
     20 C         140.4980  142.9280  168.1310 C.ar    1  UNL1        0.0988
     21 C         140.8588  140.3731  162.1847 C.3     1  UNL1        0.1342
     22 C         141.6587  139.7482  163.2889 C.ar    1  UNL1        0.0005
     23 C         143.0666  140.1992  163.5430 C.ar    1  UNL1       -0.0015
     24 C         143.8667  139.5743  164.6473 C.ar    1  UNL1        0.0111
     25 C         143.2588  138.4983  165.4975 C.ar    1  UNL1        0.0577
     26 CL        144.0589  137.8734  166.6018 Cl      1  UNL1       -0.0822
     27 C         141.8510  138.0473  165.2434 C.ar    1  UNL1        0.0111
     28 C         141.0509  138.6722  164.1391 C.ar    1  UNL1       -0.0015
@<TRIPOS>BOND
     1    12    13    1
     2    13    14    2
     3    14    15    1
     4    15    16   ar
     5    16    17   ar
     6    17    18   ar
     7    18    19   ar
     8    19    20   ar
     9    13     1    1
    10     1     2   ar
    11     2     3   ar
    12     3     4   ar
    13     4     5   ar
    14     5     6    1
    15     5     7   ar
    16     7     8    1
    17     7     9   ar
    18     9    10   ar
    19    10    11   ar
    20    11    21    1
    21    21    22    1
    22    22    23   ar
    23    23    24   ar
    24    24    25   ar
    25    25    26    1
    26    25    27   ar
    27    27    28   ar
    28    20    15   ar
    29    11     1   ar
    30    28    22   ar
    31    10     3   ar
@<TRIPOS>MOLECULE
*****
 28 31 0 0 0
SMALL
GASTEIGER

@<TRIPOS>ATOM
      1 C         141.7973  143.0491  165.0815 C.ar    1  UNL1        0.1400
      2 N         142.9689  142.6707  165.9383 N.ar    1  UNL1       -0.2271
      3 C         142.4430  142.0012  167.1733 C.ar    1  UNL1        0.0983
      4 C         143.1336  141.4193  168.3709 C.ar    1  UNL1        0.0161
      5 C         142.3275  140.8019  169.4750 C.ar    1  UNL1       -0.0242
      6 C         143.0181  140.2199  170.6727 C.3     1  UNL1        0.0307
      7 C         140.8309  140.7664  169.3814 C.ar    1  UNL1       -0.0243
      8 C         140.0248  140.1489  170.4856 C.3     1  UNL1        0.0307
      9 C         140.1403  141.3483  168.1838 C.ar    1  UNL1        0.0142
     10 C         140.9463  141.9657  167.0797 C.ar    1  UNL1        0.0788
     11 N         140.5473  142.6134  165.7869 N.ar    1  UNL1       -0.3075
     12 C         142.1842  145.2054  163.6848 C.3     1  UNL1        0.0342
     13 C         141.8640  143.7416  163.7526 C.2     1  UNL1        0.0123
     14 C         141.6105  142.9702  162.4914 C.2     1  UNL1        0.0003
     15 C         141.6772  143.6627  161.1624 C.ar    1  UNL1        0.0190
     16 C         140.5927  144.6173  160.7589 C.ar    1  UNL1        0.0031
     17 C         140.6594  145.3098  159.4300 C.ar    1  UNL1        0.0207
     18 C         141.8105  145.0476  158.5046 C.ar    1  UNL1        0.0989
     19 N         142.8949  144.0930  158.9081 N.ar    1  UNL1       -0.2423
     20 C         142.8282  143.4005  160.2370 C.ar    1  UNL1        0.0988
     21 C         139.1445  142.7936  165.2873 C.3     1  UNL1        0.1342
     22 C         138.6671  142.0175  164.0959 C.ar    1  UNL1        0.0005
     23 C         138.2175  142.7405  162.8608 C.ar    1  UNL1       -0.0015
     24 C         137.7401  141.9644  161.6693 C.ar    1  UNL1        0.0111
     25 C         137.7123  140.4652  161.7128 C.ar    1  UNL1        0.0577
     26 CL        137.2348  139.6891  160.5213 Cl      1  UNL1       -0.0822
     27 C         138.1618  139.7423  162.9478 C.ar    1  UNL1        0.0111
     28 C         138.6392  140.5184  164.1393 C.ar    1  UNL1       -0.0015
@<TRIPOS>BOND
     1    12    13    1
     2    13    14    2
     3    14    15    1
     4    15    16   ar
     5    16    17   ar
     6    17    18   ar
     7    18    19   ar
     8    19    20   ar
     9    13     1    1
    10     1     2   ar
    11     2     3   ar
    12     3     4   ar
    13     4     5   ar
    14     5     6    1
    15     5     7   ar
    16     7     8    1
    17     7     9   ar
    18     9    10   ar
    19    10    11   ar
    20    11    21    1
    21    21    22    1
    22    22    23   ar
    23    23    24   ar
    24    24    25   ar
    25    25    26    1
    26    25    27   ar
    27    27    28   ar
    28    20    15   ar
    29    11     1   ar
    30    28    22   ar
    31    10     3   ar
@<TRIPOS>MOLECULE
*****
 28 31 0 0 0
SMALL
GASTEIGER

@<TRIPOS>ATOM
      1 C         140.0135  141.0318  165.1603 C.ar    1  UNL1        0.1400
      2 N         140.5877  139.8738  165.9214 N.ar    1  UNL1       -0.2271
      3 C         141.1787  140.4030  167.1944 C.ar    1  UNL1        0.0983
      4 C         141.8801  139.7245  168.3335 C.ar    1  UNL1        0.0161
      5 C         142.3725  140.5311  169.4983 C.ar    1  UNL1       -0.0242
      6 C         143.0740  139.8525  170.6375 C.3     1  UNL1        0.0307
      7 C         142.1636  142.0162  169.5240 C.ar    1  UNL1       -0.0243
      8 C         142.6561  142.8229  170.6889 C.3     1  UNL1        0.0307
      9 C         141.4622  142.6948  168.3849 C.ar    1  UNL1        0.0142
     10 C         140.9697  141.8882  167.2201 C.ar    1  UNL1        0.0788
     11 N         140.2496  142.2768  165.9630 N.ar    1  UNL1       -0.3075
     12 C         137.8263  140.9936  163.7585 C.3     1  UNL1        0.0342
     13 C         139.3242  140.9578  163.8301 C.2     1  UNL1        0.0123
     14 C         140.1327  140.8482  162.5715 C.2     1  UNL1        0.0003
     15 C         139.4434  140.7742  161.2413 C.ar    1  UNL1        0.0190
     16 C         139.0858  142.0346  160.5108 C.ar    1  UNL1        0.0031
     17 C         138.3965  141.9607  159.1806 C.ar    1  UNL1        0.0207
     18 C         138.0648  140.6263  158.5809 C.ar    1  UNL1        0.0989
     19 N         138.4224  139.3660  159.3114 N.ar    1  UNL1       -0.2423
     20 C         139.1117  139.4400  160.6416 C.ar    1  UNL1        0.0988
     21 C         139.8379  143.6664  165.5764 C.3     1  UNL1        0.1342
     22 C         140.1125  144.1720  164.1913 C.ar    1  UNL1        0.0005
     23 C         141.4925  144.0637  163.6131 C.ar    1  UNL1       -0.0015
     24 C         141.7672  144.5694  162.2279 C.ar    1  UNL1        0.0111
     25 C         140.6620  145.1834  161.4208 C.ar    1  UNL1        0.0577
     26 CL        140.9367  145.6890  160.0355 Cl      1  UNL1       -0.0822
     27 C         139.2821  145.2917  161.9988 C.ar    1  UNL1        0.0111
     28 C         139.0074  144.7860  163.3840 C.ar    1  UNL1       -0.0015
@<TRIPOS>BOND
     1    12    13    1
     2    13    14    2
     3    14    15    1
     4    15    16   ar
     5    16    17   ar
     6    17    18   ar
     7    18    19   ar
     8    19    20   ar
     9    13     1    1
    10     1     2   ar
    11     2     3   ar
    12     3     4   ar
    13     4     5   ar
    14     5     6    1
    15     5     7   ar
    16     7     8    1
    17     7     9   ar
    18     9    10   ar
    19    10    11   ar
    20    11    21    1
    21    21    22    1
    22    22    23   ar
    23    23    24   ar
    24    24    25   ar
    25    25    26    1
    26    25    27   ar
    27    27    28   ar
    28    20    15   ar
    29    11     1   ar
    30    28    22   ar
    31    10     3   ar
