@<TRIPOS>MOLECULE
*****
 32 36 0 0 0
SMALL
GASTEIGER

@<TRIPOS>ATOM
      1 C         141.2885  139.3936  165.5345 C.ar    1  UNL1        0.2182
      2 N         142.2434  140.4327  165.0261 N.ar    1  UNL1       -0.2076
      3 C         142.8392  141.4313  165.9735 C.ar    1  UNL1        0.1364
      4 C         142.4802  141.3910  167.4293 C.ar    1  UNL1        0.0503
      5 C         143.0760  142.3896  168.3767 C.ar    1  UNL1        0.0157
      6 C         142.7169  142.3492  169.8325 C.ar    1  UNL1        0.0579
      7 CL        143.3127  143.3479  170.7800 Cl      1  UNL1       -0.0822
      8 C         141.7620  141.3102  170.3409 C.ar    1  UNL1        0.0129
      9 C         141.1661  140.3115  169.3935 C.ar    1  UNL1        0.0201
     10 C         141.5252  140.3519  167.9377 C.ar    1  UNL1        0.0858
     11 N         140.9294  139.3532  166.9902 N.ar    1  UNL1       -0.2226
     12 C         137.4268  142.0264  162.8132 C.3     1  UNL1        0.0189
     13 C         137.9453  140.6193  162.7829 C.3     1  UNL1        0.0742
     14 C         139.0597  140.2107  163.7001 C.3     1  UNL1        0.1095
     15 N         139.5782  138.8035  163.6698 N.am    1  UNL1       -0.2708
     16 C         140.6926  138.3949  164.5870 C.2     1  UNL1        0.2852
     17 O         141.2112  136.9878  164.5567 O.2     1  UNL1       -0.2665
     18 C         138.9824  137.8049  162.7223 C.3     1  UNL1        0.1109
     19 C         137.8680  138.2134  161.8052 C.3     1  UNL1        0.0904
     20 N         137.3495  139.6206  161.8354 N.3     1  UNL1       -0.2957
     21 H         136.3550  139.5633  162.0550 H       1  UNL1        0.1233
     22 N         143.7942  142.4704  165.4651 N.pl3   1  UNL1       -0.2837
     23 H         144.6537  142.6150  165.9228 H       1  UNL1        0.1550
     24 C         143.4395  143.2891  164.2593 C.ar    1  UNL1        0.1276
     25 C         142.0702  143.7874  163.9036 C.ar    1  UNL1        0.0502
     26 C         142.1763  144.5596  162.6220 C.ar    1  UNL1        0.0807
     27 N         143.6113  144.5384  162.1856 N.ar    1  UNL1       -0.1760
     28 N         144.3920  143.7532  163.1975 N.ar    1  UNL1       -0.2631
     29 H         145.3596  143.5740  163.1697 H       1  UNL1        0.1903
     30 C         141.0459  145.2343  161.9030 C.3     1  UNL1        0.0421
     31 C         139.8675  146.1624  161.9165 C.3     1  UNL1        0.0064
     32 C         140.2665  145.4750  160.6442 C.3     1  UNL1        0.0064
@<TRIPOS>BOND
     1    13    12    1
     2    13    14    1
     3    14    15    1
     4    15    16   am
     5    16    17    2
     6    16     1    1
     7     1     2   ar
     8     2     3   ar
     9     3    22    1
    10    22    24    1
    11    24    25   ar
    12    25    26   ar
    13    26    30    1
    14    30    31    1
    15    31    32    1
    16    26    27   ar
    17    27    28   ar
    18     3     4   ar
    19     4     5   ar
    20     5     6   ar
    21     6     7    1
    22     6     8   ar
    23     8     9   ar
    24     9    10   ar
    25    10    11   ar
    26    15    18    1
    27    18    19    1
    28    19    20    1
    29    20    13    1
    30    11     1   ar
    31    28    24   ar
    32    10     4   ar
    33    32    30    1
    34    22    23    1
    35    28    29    1
    36    20    21    1
@<TRIPOS>MOLECULE
*****
 32 36 0 0 0
SMALL
GASTEIGER

@<TRIPOS>ATOM
      1 C         143.9825  140.9669  161.4881 C.ar    1  UNL1        0.2182
      2 N         143.3034  139.7621  162.0689 N.ar    1  UNL1       -0.2076
      3 C         142.7927  138.6801  161.1643 C.ar    1  UNL1        0.1364
      4 C         142.9611  138.8029  159.6788 C.ar    1  UNL1        0.0503
      5 C         142.4504  137.7209  158.7742 C.ar    1  UNL1        0.0157
      6 C         142.6188  137.8437  157.2887 C.ar    1  UNL1        0.0579
      7 CL        142.1081  136.7616  156.3840 Cl      1  UNL1       -0.0822
      8 C         143.2979  139.0485  156.7080 C.ar    1  UNL1        0.0129
      9 C         143.8086  140.1305  157.6126 C.ar    1  UNL1        0.0201
     10 C         143.6402  140.0077  159.0980 C.ar    1  UNL1        0.0858
     11 N         144.1509  141.0897  160.0027 N.ar    1  UNL1       -0.2226
     12 C         139.9794  144.5784  161.9156 C.3     1  UNL1        0.0189
     13 C         141.3632  144.4870  162.4872 C.3     1  UNL1        0.0742
     14 C         142.2363  143.3136  162.1542 C.3     1  UNL1        0.1095
     15 N         143.6201  143.2223  162.7259 N.am    1  UNL1       -0.2708
     16 C         144.4932  142.0490  162.3929 C.2     1  UNL1        0.2852
     17 O         145.8770  141.9576  162.9645 O.2     1  UNL1       -0.2665
     18 C         144.1308  144.3043  163.6306 C.3     1  UNL1        0.1109
     19 C         143.2576  145.4777  163.9636 C.3     1  UNL1        0.0904
     20 N         141.8739  145.5690  163.3919 N.3     1  UNL1       -0.2957
     21 H         141.8308  146.4400  162.8628 H       1  UNL1        0.1233
     22 N         142.1136  137.4754  161.7451 N.pl3   1  UNL1       -0.2837
     23 H         142.5326  136.5880  161.6656 H       1  UNL1        0.1550
     24 C         140.7962  137.6225  162.4469 C.ar    1  UNL1        0.1276
     25 C         140.5932  137.7197  163.9300 C.ar    1  UNL1        0.0502
     26 C         139.1219  137.8556  164.1886 C.ar    1  UNL1        0.0807
     27 N         138.4156  137.8423  162.8653 N.ar    1  UNL1       -0.1760
     28 N         139.4503  137.6983  161.7889 N.ar    1  UNL1       -0.2631
     29 H         139.2767  137.6602  160.8206 H       1  UNL1        0.1903
     30 C         138.4712  137.9824  165.5341 C.3     1  UNL1        0.0421
     31 C         138.1133  138.8128  166.7309 C.3     1  UNL1        0.0064
     32 C         137.7021  137.3715  166.6678 C.3     1  UNL1        0.0064
@<TRIPOS>BOND
     1    13    12    1
     2    13    14    1
     3    14    15    1
     4    15    16   am
     5    16    17    2
     6    16     1    1
     7     1     2   ar
     8     2     3   ar
     9     3    22    1
    10    22    24    1
    11    24    25   ar
    12    25    26   ar
    13    26    30    1
    14    30    31    1
    15    31    32    1
    16    26    27   ar
    17    27    28   ar
    18     3     4   ar
    19     4     5   ar
    20     5     6   ar
    21     6     7    1
    22     6     8   ar
    23     8     9   ar
    24     9    10   ar
    25    10    11   ar
    26    15    18    1
    27    18    19    1
    28    19    20    1
    29    20    13    1
    30    11     1   ar
    31    28    24   ar
    32    10     4   ar
    33    32    30    1
    34    22    23    1
    35    28    29    1
    36    20    21    1
@<TRIPOS>MOLECULE
*****
 32 36 0 0 0
SMALL
GASTEIGER

@<TRIPOS>ATOM
      1 C         139.5463  142.9042  165.6160 C.ar    1  UNL1        0.2182
      2 N         139.3320  141.4650  165.2520 N.ar    1  UNL1       -0.2076
      3 C         139.9014  140.3797  166.1168 C.ar    1  UNL1        0.1364
      4 C         140.6852  140.7338  167.3458 C.ar    1  UNL1        0.0503
      5 C         141.2547  139.6486  168.2107 C.ar    1  UNL1        0.0157
      6 C         142.0384  140.0026  169.4396 C.ar    1  UNL1        0.0579
      7 CL        142.6079  138.9174  170.3046 Cl      1  UNL1       -0.0822
      8 C         142.2528  141.4419  169.8037 C.ar    1  UNL1        0.0129
      9 C         141.6834  142.5271  168.9388 C.ar    1  UNL1        0.0201
     10 C         140.8996  142.1731  167.7099 C.ar    1  UNL1        0.0858
     11 N         140.3301  143.2583  166.8450 N.ar    1  UNL1       -0.2226
     12 C         143.1441  143.7121  161.6596 C.3     1  UNL1        0.0189
     13 C         141.8176  144.3240  162.0000 C.3     1  UNL1        0.0742
     14 C         141.0605  143.8507  163.2054 C.3     1  UNL1        0.1095
     15 N         139.7340  144.4627  163.5458 N.am    1  UNL1       -0.2708
     16 C         138.9769  143.9895  164.7511 C.2     1  UNL1        0.2852
     17 O         137.6504  144.6014  165.0915 O.2     1  UNL1       -0.2665
     18 C         139.1646  145.5479  162.6808 C.3     1  UNL1        0.1109
     19 C         139.9217  146.0211  161.4755 C.3     1  UNL1        0.0904
     20 N         141.2482  145.4092  161.1351 N.3     1  UNL1       -0.2957
     21 H         141.9295  146.1683  161.1282 H       1  UNL1        0.1233
     22 N         139.6871  138.9405  165.7528 N.pl3   1  UNL1       -0.2837
     23 H         139.2865  138.3220  166.4057 H       1  UNL1        0.1550
     24 C         140.0830  138.4435  164.3940 C.ar    1  UNL1        0.1276
     25 C         141.4433  138.5633  163.7733 C.ar    1  UNL1        0.0502
     26 C         141.3892  137.9334  162.4131 C.ar    1  UNL1        0.0807
     27 N         139.9955  137.4243  162.1932 N.ar    1  UNL1       -0.1760
     28 N         139.1882  137.7396  163.4175 N.ar    1  UNL1       -0.2631
     29 H         138.2379  137.5226  163.5558 H       1  UNL1        0.1903
     30 C         142.5287  137.8306  161.4431 C.3     1  UNL1        0.0421
     31 C         143.0592  137.4225  160.1006 C.3     1  UNL1        0.0064
     32 C         143.9721  138.0607  161.1055 C.3     1  UNL1        0.0064
@<TRIPOS>BOND
     1    13    12    1
     2    13    14    1
     3    14    15    1
     4    15    16   am
     5    16    17    2
     6    16     1    1
     7     1     2   ar
     8     2     3   ar
     9     3    22    1
    10    22    24    1
    11    24    25   ar
    12    25    26   ar
    13    26    30    1
    14    30    31    1
    15    31    32    1
    16    26    27   ar
    17    27    28   ar
    18     3     4   ar
    19     4     5   ar
    20     5     6   ar
    21     6     7    1
    22     6     8   ar
    23     8     9   ar
    24     9    10   ar
    25    10    11   ar
    26    15    18    1
    27    18    19    1
    28    19    20    1
    29    20    13    1
    30    11     1   ar
    31    28    24   ar
    32    10     4   ar
    33    32    30    1
    34    22    23    1
    35    28    29    1
    36    20    21    1
@<TRIPOS>MOLECULE
*****
 32 36 0 0 0
SMALL
GASTEIGER

@<TRIPOS>ATOM
      1 C         138.5479  139.7216  165.8353 C.ar    1  UNL1        0.2182
      2 N         138.2311  141.0930  165.3167 N.ar    1  UNL1       -0.2076
      3 C         138.1878  141.3443  163.8386 C.ar    1  UNL1        0.1364
      4 C         138.4614  140.2243  162.8790 C.ar    1  UNL1        0.0503
      5 C         138.4182  140.4756  161.4008 C.ar    1  UNL1        0.0157
      6 C         138.6918  139.3556  160.4414 C.ar    1  UNL1        0.0579
      7 CL        138.6485  139.6069  158.9631 Cl      1  UNL1       -0.0822
      8 C         139.0086  137.9843  160.9600 C.ar    1  UNL1        0.0129
      9 C         139.0519  137.7329  162.4381 C.ar    1  UNL1        0.0201
     10 C         138.7783  138.8529  163.3976 C.ar    1  UNL1        0.0858
     11 N         138.8215  138.6016  164.8758 N.ar    1  UNL1       -0.2226
     12 C         142.9444  142.2857  167.6647 C.3     1  UNL1        0.0189
     13 C         141.8777  141.4562  168.3160 C.3     1  UNL1        0.0742
     14 C         140.7678  140.8780  167.4891 C.3     1  UNL1        0.1095
     15 N         139.7011  140.0485  168.1404 N.am    1  UNL1       -0.2708
     16 C         138.5912  139.4703  167.3135 C.2     1  UNL1        0.2852
     17 O         137.5245  138.6408  167.9648 O.2     1  UNL1       -0.2665
     18 C         139.7444  139.7972  169.6186 C.3     1  UNL1        0.1109
     19 C         140.8543  140.3754  170.4454 C.3     1  UNL1        0.0904
     20 N         141.9210  141.2049  169.7942 N.3     1  UNL1       -0.2957
     21 H         142.8108  140.7460  169.9889 H       1  UNL1        0.1233
     22 N         137.8710  142.7157  163.3199 N.pl3   1  UNL1       -0.2837
     23 H         136.9393  142.9631  163.1198 H       1  UNL1        0.1550
     24 C         138.9735  143.7100  163.1062 C.ar    1  UNL1        0.1276
     25 C         140.4069  143.5382  163.5137 C.ar    1  UNL1        0.0502
     26 C         141.1556  144.7727  163.1069 C.ar    1  UNL1        0.0807
     27 N         140.1849  145.7074  162.4480 N.ar    1  UNL1       -0.1760
     28 N         138.8363  145.0506  162.4476 N.ar    1  UNL1       -0.2631
     29 H         138.0068  145.4324  162.0796 H       1  UNL1        0.1903
     30 C         142.6181  145.0277  163.3213 C.3     1  UNL1        0.0421
     31 C         144.0430  144.8672  162.8809 C.3     1  UNL1        0.0064
     32 C         143.7263  145.6300  164.1332 C.3     1  UNL1        0.0064
@<TRIPOS>BOND
     1    13    12    1
     2    13    14    1
     3    14    15    1
     4    15    16   am
     5    16    17    2
     6    16     1    1
     7     1     2   ar
     8     2     3   ar
     9     3    22    1
    10    22    24    1
    11    24    25   ar
    12    25    26   ar
    13    26    30    1
    14    30    31    1
    15    31    32    1
    16    26    27   ar
    17    27    28   ar
    18     3     4   ar
    19     4     5   ar
    20     5     6   ar
    21     6     7    1
    22     6     8   ar
    23     8     9   ar
    24     9    10   ar
    25    10    11   ar
    26    15    18    1
    27    18    19    1
    28    19    20    1
    29    20    13    1
    30    11     1   ar
    31    28    24   ar
    32    10     4   ar
    33    32    30    1
    34    22    23    1
    35    28    29    1
    36    20    21    1
@<TRIPOS>MOLECULE
*****
 32 36 0 0 0
SMALL
GASTEIGER

@<TRIPOS>ATOM
      1 C         143.5932  139.3271  165.1983 C.ar    1  UNL1        0.2182
      2 N         143.7467  140.7971  164.9424 N.ar    1  UNL1       -0.2076
      3 C         143.8034  141.3115  163.5345 C.ar    1  UNL1        0.1364
      4 C         143.7066  140.3558  162.3824 C.ar    1  UNL1        0.0503
      5 C         143.7633  140.8701  160.9745 C.ar    1  UNL1        0.0157
      6 C         143.6665  139.9144  159.8225 C.ar    1  UNL1        0.0579
      7 CL        143.7232  140.4287  158.4145 Cl      1  UNL1       -0.0822
      8 C         143.5130  138.4444  160.0783 C.ar    1  UNL1        0.0129
      9 C         143.4563  137.9300  161.4862 C.ar    1  UNL1        0.0201
     10 C         143.5531  138.8857  162.6382 C.ar    1  UNL1        0.0858
     11 N         143.4964  138.3714  164.0462 N.ar    1  UNL1       -0.2226
     12 C         140.3971  142.7412  167.9147 C.3     1  UNL1        0.0189
     13 C         141.1536  141.5020  168.2915 C.3     1  UNL1        0.0742
     14 C         141.9668  140.7770  167.2604 C.3     1  UNL1        0.1095
     15 N         142.7233  139.5378  167.6373 N.am    1  UNL1       -0.2708
     16 C         143.5365  138.8128  166.6062 C.2     1  UNL1        0.2852
     17 O         144.2930  137.5736  166.9831 O.2     1  UNL1       -0.2665
     18 C         142.6665  139.0235  169.0452 C.3     1  UNL1        0.1109
     19 C         141.8533  139.7485  170.0763 C.3     1  UNL1        0.0904
     20 N         141.0969  140.9877  169.6995 N.3     1  UNL1       -0.2957
     21 H         141.4405  141.7367  170.3006 H       1  UNL1        0.1233
     22 N         143.9569  142.7815  163.2787 N.pl3   1  UNL1       -0.2837
     23 H         144.8217  143.1405  162.9746 H       1  UNL1        0.1550
     24 C         142.7928  143.7044  163.4860 C.ar    1  UNL1        0.1276
     25 C         141.5206  143.3707  164.2072 C.ar    1  UNL1        0.0502
     26 C         140.6380  144.5832  164.1755 C.ar    1  UNL1        0.0807
     27 N         141.3649  145.6663  163.4347 N.ar    1  UNL1       -0.1760
     28 N         142.6966  145.1232  163.0086 N.ar    1  UNL1       -0.2631
     29 H         143.3864  145.6120  162.5042 H       1  UNL1        0.1903
     30 C         139.2691  144.6933  164.7787 C.3     1  UNL1        0.0421
     31 C         138.3703  145.1641  165.8835 C.3     1  UNL1        0.0064
     32 C         137.7967  144.4131  164.7185 C.3     1  UNL1        0.0064
@<TRIPOS>BOND
     1    13    12    1
     2    13    14    1
     3    14    15    1
     4    15    16   am
     5    16    17    2
     6    16     1    1
     7     1     2   ar
     8     2     3   ar
     9     3    22    1
    10    22    24    1
    11    24    25   ar
    12    25    26   ar
    13    26    30    1
    14    30    31    1
    15    31    32    1
    16    26    27   ar
    17    27    28   ar
    18     3     4   ar
    19     4     5   ar
    20     5     6   ar
    21     6     7    1
    22     6     8   ar
    23     8     9   ar
    24     9    10   ar
    25    10    11   ar
    26    15    18    1
    27    18    19    1
    28    19    20    1
    29    20    13    1
    30    11     1   ar
    31    28    24   ar
    32    10     4   ar
    33    32    30    1
    34    22    23    1
    35    28    29    1
    36    20    21    1
@<TRIPOS>MOLECULE
*****
 32 36 0 0 0
SMALL
GASTEIGER

@<TRIPOS>ATOM
      1 C         138.3598  140.9898  158.2338 C.ar    1  UNL1        0.2182
      2 N         138.1345  142.1944  159.0987 N.ar    1  UNL1       -0.2076
      3 C         138.1012  142.0504  160.5914 C.ar    1  UNL1        0.1364
      4 C         138.2930  140.7017  161.2192 C.ar    1  UNL1        0.0503
      5 C         138.2596  140.5577  162.7119 C.ar    1  UNL1        0.0157
      6 C         138.4515  139.2090  163.3397 C.ar    1  UNL1        0.0579
      7 CL        138.4181  139.0650  164.8325 Cl      1  UNL1       -0.0822
      8 C         138.6767  138.0043  162.4748 C.ar    1  UNL1        0.0129
      9 C         138.7101  138.1483  160.9822 C.ar    1  UNL1        0.0201
     10 C         138.5183  139.4970  160.3544 C.ar    1  UNL1        0.0858
     11 N         138.5517  139.6411  158.8616 N.ar    1  UNL1       -0.2226
     12 C         133.2847  140.2055  156.5374 C.3     1  UNL1        0.0189
     13 C         134.5785  140.5096  155.8420 C.3     1  UNL1        0.0742
     14 C         135.8389  140.6696  156.6393 C.3     1  UNL1        0.1095
     15 N         137.1327  140.9738  155.9438 N.am    1  UNL1       -0.2708
     16 C         138.3932  141.1338  156.7411 C.2     1  UNL1        0.2852
     17 O         139.6870  141.4379  156.0457 O.2     1  UNL1       -0.2665
     18 C         137.1661  141.1178  154.4511 C.3     1  UNL1        0.1109
     19 C         135.9056  140.9577  153.6539 C.3     1  UNL1        0.0904
     20 N         134.6118  140.6536  154.3492 N.3     1  UNL1       -0.2957
     21 H         134.2682  139.7753  153.9609 H       1  UNL1        0.1233
     22 N         137.8759  143.2551  161.4562 N.pl3   1  UNL1       -0.2837
     23 H         136.9659  143.4841  161.7541 H       1  UNL1        0.1550
     24 C         139.0371  144.1110  161.8673 C.ar    1  UNL1        0.1276
     25 C         140.3942  143.6191  162.2753 C.ar    1  UNL1        0.0502
     26 C         141.2410  144.8131  162.6027 C.ar    1  UNL1        0.0807
     27 N         140.4072  146.0431  162.3970 N.ar    1  UNL1       -0.1760
     28 N         139.0452  145.6091  161.9425 N.ar    1  UNL1       -0.2631
     29 H         138.2893  146.2032  161.7307 H       1  UNL1        0.1903
     30 C         142.6704  144.7827  163.0561 C.3     1  UNL1        0.0421
     31 C         144.0948  144.3675  162.8351 C.3     1  UNL1        0.0064
     32 C         143.7220  145.1451  164.0625 C.3     1  UNL1        0.0064
@<TRIPOS>BOND
     1    13    12    1
     2    13    14    1
     3    14    15    1
     4    15    16   am
     5    16    17    2
     6    16     1    1
     7     1     2   ar
     8     2     3   ar
     9     3    22    1
    10    22    24    1
    11    24    25   ar
    12    25    26   ar
    13    26    30    1
    14    30    31    1
    15    31    32    1
    16    26    27   ar
    17    27    28   ar
    18     3     4   ar
    19     4     5   ar
    20     5     6   ar
    21     6     7    1
    22     6     8   ar
    23     8     9   ar
    24     9    10   ar
    25    10    11   ar
    26    15    18    1
    27    18    19    1
    28    19    20    1
    29    20    13    1
    30    11     1   ar
    31    28    24   ar
    32    10     4   ar
    33    32    30    1
    34    22    23    1
    35    28    29    1
    36    20    21    1
@<TRIPOS>MOLECULE
*****
 32 36 0 0 0
SMALL
GASTEIGER

@<TRIPOS>ATOM
      1 C         142.5780  142.8069  165.0607 C.ar    1  UNL1        0.2182
      2 N         142.8112  141.4566  164.4506 N.ar    1  UNL1       -0.2076
      3 C         142.9073  140.2437  165.3278 C.ar    1  UNL1        0.1364
      4 C         142.7702  140.3811  166.8153 C.ar    1  UNL1        0.0503
      5 C         142.8663  139.1682  167.6925 C.ar    1  UNL1        0.0157
      6 C         142.7293  139.3056  169.1799 C.ar    1  UNL1        0.0579
      7 CL        142.8254  138.0927  170.0572 Cl      1  UNL1       -0.0822
      8 C         142.4961  140.6560  169.7900 C.ar    1  UNL1        0.0129
      9 C         142.4000  141.8689  168.9127 C.ar    1  UNL1        0.0201
     10 C         142.5370  141.7314  167.4254 C.ar    1  UNL1        0.0858
     11 N         142.4409  142.9443  166.5480 N.ar    1  UNL1       -0.2226
     12 C         137.4787  142.9592  163.2653 C.3     1  UNL1        0.0189
     13 C         138.6814  143.8308  163.0562 C.3     1  UNL1        0.0742
     14 C         139.9803  143.4895  163.7243 C.3     1  UNL1        0.1095
     15 N         141.1830  144.3611  163.5152 N.am    1  UNL1       -0.2708
     16 C         142.4819  144.0198  164.1833 C.2     1  UNL1        0.2852
     17 O         143.6846  144.8914  163.9742 O.2     1  UNL1       -0.2665
     18 C         141.0869  145.5740  162.6379 C.3     1  UNL1        0.1109
     19 C         139.7880  145.9152  161.9697 C.3     1  UNL1        0.0904
     20 N         138.5853  145.0437  162.1788 N.3     1  UNL1       -0.2957
     21 H         138.2938  144.7181  161.2572 H       1  UNL1        0.1233
     22 N         143.1404  138.8933  164.7177 N.pl3   1  UNL1       -0.2837
     23 H         143.2733  138.1080  165.2964 H       1  UNL1        0.1550
     24 C         143.1713  138.7395  163.2260 C.ar    1  UNL1        0.1276
     25 C         141.9782  138.7178  162.3170 C.ar    1  UNL1        0.0502
     26 C         142.4701  138.5453  160.9105 C.ar    1  UNL1        0.0807
     27 N         143.9673  138.4604  160.9503 N.ar    1  UNL1       -0.1760
     28 N         144.4005  138.5804  162.3813 N.ar    1  UNL1       -0.2631
     29 H         145.3288  138.5586  162.7086 H       1  UNL1        0.1903
     30 C         141.6151  138.4708  159.6803 C.3     1  UNL1        0.0421
     31 C         141.4826  138.2579  158.2014 C.3     1  UNL1        0.0064
     32 C         140.2667  138.5546  159.0285 C.3     1  UNL1        0.0064
@<TRIPOS>BOND
     1    13    12    1
     2    13    14    1
     3    14    15    1
     4    15    16   am
     5    16    17    2
     6    16     1    1
     7     1     2   ar
     8     2     3   ar
     9     3    22    1
    10    22    24    1
    11    24    25   ar
    12    25    26   ar
    13    26    30    1
    14    30    31    1
    15    31    32    1
    16    26    27   ar
    17    27    28   ar
    18     3     4   ar
    19     4     5   ar
    20     5     6   ar
    21     6     7    1
    22     6     8   ar
    23     8     9   ar
    24     9    10   ar
    25    10    11   ar
    26    15    18    1
    27    18    19    1
    28    19    20    1
    29    20    13    1
    30    11     1   ar
    31    28    24   ar
    32    10     4   ar
    33    32    30    1
    34    22    23    1
    35    28    29    1
    36    20    21    1
@<TRIPOS>MOLECULE
*****
 32 36 0 0 0
SMALL
GASTEIGER

@<TRIPOS>ATOM
      1 C         142.9195  141.0878  165.2652 C.ar    1  UNL1        0.2182
      2 N         141.9081  142.1241  164.8740 N.ar    1  UNL1       -0.2076
      3 C         141.0409  142.7584  165.9207 C.ar    1  UNL1        0.1364
      4 C         141.1851  142.3564  167.3587 C.ar    1  UNL1        0.0503
      5 C         140.3179  142.9906  168.4054 C.ar    1  UNL1        0.0157
      6 C         140.4622  142.5886  169.8433 C.ar    1  UNL1        0.0579
      7 CL        139.5949  143.2229  170.8900 Cl      1  UNL1       -0.0822
      8 C         141.4736  141.5523  170.2344 C.ar    1  UNL1        0.0129
      9 C         142.3408  140.9180  169.1877 C.ar    1  UNL1        0.0201
     10 C         142.1966  141.3201  167.7499 C.ar    1  UNL1        0.0858
     11 N         143.0638  140.6858  166.7031 N.ar    1  UNL1       -0.2226
     12 C         139.7619  137.5787  162.6260 C.3     1  UNL1        0.0189
     13 C         141.2016  137.9803  162.5008 C.3     1  UNL1        0.0742
     14 C         141.7743  139.0161  163.4222 C.3     1  UNL1        0.1095
     15 N         143.2141  139.4177  163.2969 N.am    1  UNL1       -0.2708
     16 C         143.7868  140.4535  164.2184 C.2     1  UNL1        0.2852
     17 O         145.2265  140.8551  164.0932 O.2     1  UNL1       -0.2665
     18 C         144.0813  138.7834  162.2502 C.3     1  UNL1        0.1109
     19 C         143.5086  137.7476  161.3287 C.3     1  UNL1        0.0904
     20 N         142.0689  137.3460  161.4540 N.3     1  UNL1       -0.2957
     21 H         142.0577  136.3416  161.6314 H       1  UNL1        0.1233
     22 N         140.0294  143.7947  165.5296 N.pl3   1  UNL1       -0.2837
     23 H         139.6543  144.3982  166.2109 H       1  UNL1        0.1550
     24 C         139.5894  143.9114  164.1003 C.ar    1  UNL1        0.1276
     25 C         140.4668  144.2541  162.9329 C.ar    1  UNL1        0.0502
     26 C         139.6145  144.2604  161.6986 C.ar    1  UNL1        0.0807
     27 N         138.2103  143.9215  162.1032 N.ar    1  UNL1       -0.1760
     28 N         138.1949  143.7058  163.5875 N.ar    1  UNL1       -0.2631
     29 H         137.4077  143.4706  164.1299 H       1  UNL1        0.1903
     30 C         140.0838  144.5539  160.3045 C.3     1  UNL1        0.0421
     31 C         140.9373  145.3492  159.3616 C.3     1  UNL1        0.0064
     32 C         140.0432  144.2670  158.8327 C.3     1  UNL1        0.0064
@<TRIPOS>BOND
     1    13    12    1
     2    13    14    1
     3    14    15    1
     4    15    16   am
     5    16    17    2
     6    16     1    1
     7     1     2   ar
     8     2     3   ar
     9     3    22    1
    10    22    24    1
    11    24    25   ar
    12    25    26   ar
    13    26    30    1
    14    30    31    1
    15    31    32    1
    16    26    27   ar
    17    27    28   ar
    18     3     4   ar
    19     4     5   ar
    20     5     6   ar
    21     6     7    1
    22     6     8   ar
    23     8     9   ar
    24     9    10   ar
    25    10    11   ar
    26    15    18    1
    27    18    19    1
    28    19    20    1
    29    20    13    1
    30    11     1   ar
    31    28    24   ar
    32    10     4   ar
    33    32    30    1
    34    22    23    1
    35    28    29    1
    36    20    21    1
@<TRIPOS>MOLECULE
*****
 32 36 0 0 0
SMALL
GASTEIGER

@<TRIPOS>ATOM
      1 C         140.0914  141.8454  158.3085 C.ar    1  UNL1        0.2182
      2 N         140.7679  142.8340  159.2113 N.ar    1  UNL1       -0.2076
      3 C         140.7317  144.2970  158.8824 C.ar    1  UNL1        0.1364
      4 C         140.0190  144.7715  157.6508 C.ar    1  UNL1        0.0503
      5 C         139.9828  146.2346  157.3220 C.ar    1  UNL1        0.0157
      6 C         139.2700  146.7090  156.0904 C.ar    1  UNL1        0.0579
      7 CL        139.2338  148.1721  155.7615 Cl      1  UNL1       -0.0822
      8 C         138.5935  145.7204  155.1876 C.ar    1  UNL1        0.0129
      9 C         138.6297  144.2574  155.5164 C.ar    1  UNL1        0.0201
     10 C         139.3424  143.7829  156.7480 C.ar    1  UNL1        0.0858
     11 N         139.3787  142.3198  157.0769 N.ar    1  UNL1       -0.2226
     12 C         137.3012  141.2719  162.9058 C.3     1  UNL1        0.0189
     13 C         138.0259  140.3180  162.0032 C.3     1  UNL1        0.0742
     14 C         138.7144  140.8271  160.7716 C.3     1  UNL1        0.1095
     15 N         139.4391  139.8731  159.8689 N.am    1  UNL1       -0.2708
     16 C         140.1276  140.3823  158.6374 C.2     1  UNL1        0.2852
     17 O         140.8523  139.4284  157.7347 O.2     1  UNL1       -0.2665
     18 C         139.4753  138.4101  160.1978 C.3     1  UNL1        0.1109
     19 C         138.7868  137.9010  161.4294 C.3     1  UNL1        0.0904
     20 N         138.0621  138.8549  162.3321 N.3     1  UNL1       -0.2957
     21 H         138.4903  138.7709  163.2540 H       1  UNL1        0.1233
     22 N         141.4083  145.2856  159.7852 N.pl3   1  UNL1       -0.2837
     23 H         141.9902  145.9823  159.4041 H       1  UNL1        0.1550
     24 C         141.1983  145.2127  161.2686 C.ar    1  UNL1        0.1276
     25 C         139.8839  145.0171  161.9645 C.ar    1  UNL1        0.0502
     26 C         140.1390  145.0061  163.4425 C.ar    1  UNL1        0.0807
     27 N         141.6112  145.1949  163.6602 N.ar    1  UNL1       -0.1760
     28 N         142.2658  145.3225  162.3166 N.ar    1  UNL1       -0.2631
     29 H         143.2272  145.4552  162.1516 H       1  UNL1        0.1903
     30 C         139.1039  144.8362  164.5147 C.3     1  UNL1        0.0421
     31 C         137.8073  144.2482  164.9871 C.3     1  UNL1        0.0064
     32 C         138.6076  145.1298  165.8995 C.3     1  UNL1        0.0064
@<TRIPOS>BOND
     1    13    12    1
     2    13    14    1
     3    14    15    1
     4    15    16   am
     5    16    17    2
     6    16     1    1
     7     1     2   ar
     8     2     3   ar
     9     3    22    1
    10    22    24    1
    11    24    25   ar
    12    25    26   ar
    13    26    30    1
    14    30    31    1
    15    31    32    1
    16    26    27   ar
    17    27    28   ar
    18     3     4   ar
    19     4     5   ar
    20     5     6   ar
    21     6     7    1
    22     6     8   ar
    23     8     9   ar
    24     9    10   ar
    25    10    11   ar
    26    15    18    1
    27    18    19    1
    28    19    20    1
    29    20    13    1
    30    11     1   ar
    31    28    24   ar
    32    10     4   ar
    33    32    30    1
    34    22    23    1
    35    28    29    1
    36    20    21    1
