@<TRIPOS>MOLECULE
*****
 35 38 0 0 0
SMALL
GASTEIGER

@<TRIPOS>ATOM
      1 C         139.4729  140.9405  170.4447 C.3     1  UNL1        0.0518
      2 C         139.6107  140.7013  168.9703 C.ar    1  UNL1        0.0568
      3 N         138.9379  139.5201  168.3361 N.ar    1  UNL1       -0.2456
      4 C         139.0756  139.2808  166.8617 C.ar    1  UNL1        0.1319
      5 C         139.8860  140.2228  166.0215 C.ar    1  UNL1        0.0196
      6 C         140.5588  141.4040  166.6557 C.ar    1  UNL1       -0.0015
      7 C         140.4210  141.6432  168.1301 C.ar    1  UNL1        0.0068
      8 C         139.8427  139.7339  164.6041 C.3     1  UNL1        0.1226
      9 N         139.0055  138.4898  164.5683 N.am    1  UNL1       -0.2623
     10 C         138.5314  138.2098  165.9636 C.2     1  UNL1        0.2671
     11 O         137.6652  137.0605  166.3864 O.2     1  UNL1       -0.2682
     12 C         141.3692  142.3460  165.8155 C.ar    1  UNL1        0.0102
     13 C         142.8498  142.1466  165.6813 C.ar    1  UNL1        0.0017
     14 C         143.6604  143.0886  164.8412 C.ar    1  UNL1        0.0114
     15 C         142.9902  144.2298  164.1353 C.ar    1  UNL1        0.0585
     16 CL        143.8007  145.1718  163.2952 Cl      1  UNL1       -0.0822
     17 C         141.5096  144.4292  164.2695 C.ar    1  UNL1        0.0228
     18 C         140.6991  143.4872  165.1096 C.ar    1  UNL1        0.0585
     19 CL        139.2184  143.6866  165.2438 Cl      1  UNL1       -0.0822
     20 C         141.0938  142.8245  168.7643 C.3     1  UNL1        0.0934
     21 N         142.4869  142.6933  169.3048 N.3     1  UNL1       -0.3174
     22 H         142.4849  142.0519  170.0978 H       1  UNL1        0.1192
     23 H         142.8214  143.6079  169.6080 H       1  UNL1        0.1192
     24 C         138.6966  137.6697  163.3509 C.3     1  UNL1        0.1796
     25 C         138.6357  138.3231  162.0021 C.2     1  UNL1        0.2430
     26 O         139.6805  138.0139  160.9712 O.2     1  UNL1       -0.2732
     27 N         137.5301  139.2856  161.6840 N.am    1  UNL1       -0.2990
     28 H         136.8443  139.4886  162.3606 H       1  UNL1        0.1498
     29 C         137.4693  139.9389  160.3352 C.3     1  UNL1        0.1179
     30 C         138.2469  141.1949  160.0746 C.ar    1  UNL1        0.0166
     31 C         139.0363  141.3390  158.8073 C.ar    1  UNL1        0.0005
     32 C         139.8139  142.5950  158.5466 C.ar    1  UNL1        0.0204
     33 C         139.8019  143.7070  159.5534 C.ar    1  UNL1        0.0989
     34 N         139.0125  143.5630  160.8206 N.ar    1  UNL1       -0.2426
     35 C         138.2349  142.3069  161.0812 C.ar    1  UNL1        0.0962
@<TRIPOS>BOND
     1     1     2    1
     2     2     3   ar
     3     3     4   ar
     4     4     5   ar
     5     5     6   ar
     6     6    12    1
     7    12    13   ar
     8    13    14   ar
     9    14    15   ar
    10    15    16    1
    11    15    17   ar
    12    17    18   ar
    13    18    19    1
    14     6     7   ar
    15     7    20    1
    16    20    21    1
    17     5     8    1
    18     8     9    1
    19     9    24    1
    20    24    25    1
    21    25    26    2
    22    25    27   am
    23    27    29    1
    24    29    30    1
    25    30    31   ar
    26    31    32   ar
    27    32    33   ar
    28    33    34   ar
    29    34    35   ar
    30     9    10   am
    31    10    11    2
    32     7     2   ar
    33    35    30   ar
    34    10     4    1
    35    18    12   ar
    36    21    22    1
    37    21    23    1
    38    27    28    1
@<TRIPOS>MOLECULE
*****
 35 38 0 0 0
SMALL
GASTEIGER

@<TRIPOS>ATOM
      1 C         139.5823  145.0656  156.2673 C.3     1  UNL1        0.0518
      2 C         139.6023  144.2096  157.4990 C.ar    1  UNL1        0.0568
      3 N         138.7497  142.9775  157.5698 N.ar    1  UNL1       -0.2456
      4 C         138.7696  142.1214  158.8014 C.ar    1  UNL1        0.1319
      5 C         139.6422  142.4975  159.9622 C.ar    1  UNL1        0.0196
      6 C         140.4947  143.7296  159.8913 C.ar    1  UNL1       -0.0015
      7 C         140.4747  144.5856  158.6597 C.ar    1  UNL1        0.0068
      8 C         139.4546  141.4672  161.0360 C.3     1  UNL1        0.1226
      9 N         138.4662  140.4543  160.5390 N.am    1  UNL1       -0.2623
     10 C         138.0428  140.8586  159.1579 C.2     1  UNL1        0.2671
     11 O         137.0645  140.1284  158.2864 O.2     1  UNL1       -0.2682
     12 C         141.3673  144.1058  161.0520 C.ar    1  UNL1        0.0102
     13 C         142.7699  143.5810  161.1369 C.ar    1  UNL1        0.0017
     14 C         143.6425  143.9571  162.2975 C.ar    1  UNL1        0.0114
     15 C         143.1124  144.8579  163.3733 C.ar    1  UNL1        0.0585
     16 CL        143.9850  145.2340  164.5340 Cl      1  UNL1       -0.0822
     17 C         141.7098  145.3827  163.2885 C.ar    1  UNL1        0.0228
     18 C         140.8372  145.0066  162.1278 C.ar    1  UNL1        0.0585
     19 CL        139.4345  145.5314  162.0430 Cl      1  UNL1       -0.0822
     20 C         141.3274  145.8178  158.5888 C.3     1  UNL1        0.0934
     21 N         142.6323  145.7854  157.8499 N.3     1  UNL1       -0.3174
     22 H         143.2786  145.1580  158.3285 H       1  UNL1        0.1192
     23 H         143.0295  146.7244  157.8200 H       1  UNL1        0.1192
     24 C         137.9855  139.2487  161.2909 C.3     1  UNL1        0.1796
     25 C         138.7924  138.7062  162.4331 C.2     1  UNL1        0.2430
     26 O         138.4474  139.0866  163.8424 O.2     1  UNL1       -0.2732
     27 N         139.9443  137.7832  162.1659 N.am    1  UNL1       -0.2990
     28 H         140.1707  137.5335  161.2410 H       1  UNL1        0.1498
     29 C         140.7511  137.2407  163.3081 C.3     1  UNL1        0.1179
     30 C         142.0091  137.9373  163.7352 C.ar    1  UNL1        0.0166
     31 C         142.2765  138.1766  165.1916 C.ar    1  UNL1        0.0005
     32 C         143.5344  138.8732  165.6187 C.ar    1  UNL1        0.0204
     33 C         144.5250  139.3305  164.5892 C.ar    1  UNL1        0.0989
     34 N         144.2576  139.0912  163.1327 N.ar    1  UNL1       -0.2426
     35 C         142.9996  138.3946  162.7058 C.ar    1  UNL1        0.0962
@<TRIPOS>BOND
     1     1     2    1
     2     2     3   ar
     3     3     4   ar
     4     4     5   ar
     5     5     6   ar
     6     6    12    1
     7    12    13   ar
     8    13    14   ar
     9    14    15   ar
    10    15    16    1
    11    15    17   ar
    12    17    18   ar
    13    18    19    1
    14     6     7   ar
    15     7    20    1
    16    20    21    1
    17     5     8    1
    18     8     9    1
    19     9    24    1
    20    24    25    1
    21    25    26    2
    22    25    27   am
    23    27    29    1
    24    29    30    1
    25    30    31   ar
    26    31    32   ar
    27    32    33   ar
    28    33    34   ar
    29    34    35   ar
    30     9    10   am
    31    10    11    2
    32     7     2   ar
    33    35    30   ar
    34    10     4    1
    35    18    12   ar
    36    21    22    1
    37    21    23    1
    38    27    28    1
@<TRIPOS>MOLECULE
*****
 35 38 0 0 0
SMALL
GASTEIGER

@<TRIPOS>ATOM
      1 C         139.6134  145.1058  156.3016 C.3     1  UNL1        0.0518
      2 C         139.6299  144.2315  157.5204 C.ar    1  UNL1        0.0568
      3 N         138.7767  142.9988  157.5706 N.ar    1  UNL1       -0.2456
      4 C         138.7931  142.1245  158.7893 C.ar    1  UNL1        0.1319
      5 C         139.6627  142.4829  159.9578 C.ar    1  UNL1        0.0196
      6 C         140.5159  143.7155  159.9076 C.ar    1  UNL1       -0.0015
      7 C         140.4994  144.5899  158.6888 C.ar    1  UNL1        0.0068
      8 C         139.4720  141.4367  161.0157 C.3     1  UNL1        0.1226
      9 N         138.4845  140.4317  160.5009 N.am    1  UNL1       -0.2623
     10 C         138.0649  140.8568  159.1250 C.2     1  UNL1        0.2671
     11 O         137.0886  140.1400  158.2401 O.2     1  UNL1       -0.2682
     12 C         141.3855  144.0740  161.0760 C.ar    1  UNL1        0.0102
     13 C         142.7946  143.5644  161.1464 C.ar    1  UNL1        0.0017
     14 C         143.6643  143.9228  162.3148 C.ar    1  UNL1        0.0114
     15 C         143.1249  144.7907  163.4128 C.ar    1  UNL1        0.0585
     16 CL        143.9946  145.1491  164.5812 Cl      1  UNL1       -0.0822
     17 C         141.7159  145.3004  163.3424 C.ar    1  UNL1        0.0228
     18 C         140.8462  144.9420  162.1740 C.ar    1  UNL1        0.0585
     19 CL        139.4372  145.4516  162.1036 Cl      1  UNL1       -0.0822
     20 C         141.3527  145.8226  158.6385 C.3     1  UNL1        0.0934
     21 N         142.6035  145.8358  157.8107 N.3     1  UNL1       -0.3174
     22 H         143.2773  145.1777  158.2023 H       1  UNL1        0.1192
     23 H         143.0034  146.7741  157.8139 H       1  UNL1        0.1192
     24 C         138.0014  139.2152  161.2336 C.3     1  UNL1        0.1796
     25 C         138.3670  139.0128  162.6742 C.2     1  UNL1        0.2430
     26 O         139.2541  137.8697  163.0693 O.2     1  UNL1       -0.2732
     27 N         137.8454  139.9536  163.7197 N.am    1  UNL1       -0.2990
     28 H         137.2632  140.7039  163.4604 H       1  UNL1        0.1498
     29 C         138.2111  139.7511  165.1603 C.3     1  UNL1        0.1179
     30 C         139.1548  140.7018  165.8352 C.ar    1  UNL1        0.0166
     31 C         139.3809  142.0687  165.2604 C.ar    1  UNL1        0.0005
     32 C         140.3247  143.0194  165.9354 C.ar    1  UNL1        0.0204
     33 C         141.0424  142.6031  167.1851 C.ar    1  UNL1        0.0989
     34 N         140.8162  141.2362  167.7599 N.ar    1  UNL1       -0.2426
     35 C         139.8725  140.2856  167.0849 C.ar    1  UNL1        0.0962
@<TRIPOS>BOND
     1     1     2    1
     2     2     3   ar
     3     3     4   ar
     4     4     5   ar
     5     5     6   ar
     6     6    12    1
     7    12    13   ar
     8    13    14   ar
     9    14    15   ar
    10    15    16    1
    11    15    17   ar
    12    17    18   ar
    13    18    19    1
    14     6     7   ar
    15     7    20    1
    16    20    21    1
    17     5     8    1
    18     8     9    1
    19     9    24    1
    20    24    25    1
    21    25    26    2
    22    25    27   am
    23    27    29    1
    24    29    30    1
    25    30    31   ar
    26    31    32   ar
    27    32    33   ar
    28    33    34   ar
    29    34    35   ar
    30     9    10   am
    31    10    11    2
    32     7     2   ar
    33    35    30   ar
    34    10     4    1
    35    18    12   ar
    36    21    22    1
    37    21    23    1
    38    27    28    1
@<TRIPOS>MOLECULE
*****
 35 38 0 0 0
SMALL
GASTEIGER

@<TRIPOS>ATOM
      1 C         139.7414  139.8940  158.3920 C.3     1  UNL1        0.0518
      2 C         140.3388  140.1735  159.7393 C.ar    1  UNL1        0.0568
      3 N         141.6323  140.9256  159.8447 N.ar    1  UNL1       -0.2456
      4 C         142.2296  141.2050  161.1920 C.ar    1  UNL1        0.1319
      5 C         141.5335  140.7324  162.4337 C.ar    1  UNL1        0.0196
      6 C         140.2400  139.9803  162.3283 C.ar    1  UNL1       -0.0015
      7 C         139.6426  139.7009  160.9810 C.ar    1  UNL1        0.0068
      8 C         142.3566  141.1528  163.6152 C.3     1  UNL1        0.1226
      9 N         143.5615  141.8852  163.1035 N.am    1  UNL1       -0.2623
     10 C         143.4830  141.9175  161.6059 C.2     1  UNL1        0.2671
     11 O         144.4825  142.5511  160.6841 O.2     1  UNL1       -0.2682
     12 C         139.5437  139.5077  163.5700 C.ar    1  UNL1        0.0102
     13 C         139.7065  138.0883  164.0269 C.ar    1  UNL1        0.0017
     14 C         139.0103  137.6155  165.2686 C.ar    1  UNL1        0.0114
     15 C         138.1514  138.5622  166.0534 C.ar    1  UNL1        0.0585
     16 CL        137.4552  138.0895  167.2951 Cl      1  UNL1       -0.0822
     17 C         137.9886  139.9816  165.5965 C.ar    1  UNL1        0.0228
     18 C         138.6848  140.4544  164.3548 C.ar    1  UNL1        0.0585
     19 CL        138.5220  141.8738  163.8979 Cl      1  UNL1       -0.0822
     20 C         138.3490  138.9487  160.8755 C.3     1  UNL1        0.0934
     21 N         137.0446  139.6846  160.9589 N.3     1  UNL1       -0.3174
     22 H         136.9365  140.0801  161.8929 H       1  UNL1        0.1192
     23 H         136.2774  139.0389  160.7721 H       1  UNL1        0.1192
     24 C         144.6532  142.4808  163.9422 C.3     1  UNL1        0.1796
     25 C         144.3736  142.8875  165.3587 C.2     1  UNL1        0.2430
     26 O         145.0021  144.1280  165.9208 O.2     1  UNL1       -0.2732
     27 N         143.4655  142.0536  166.2132 N.am    1  UNL1       -0.2990
     28 H         143.0530  141.2394  165.8443 H       1  UNL1        0.1498
     29 C         143.1860  142.4603  167.6296 C.3     1  UNL1        0.1179
     30 C         142.2753  141.6282  168.4830 C.ar    1  UNL1        0.0166
     31 C         141.0467  141.0086  167.8860 C.ar    1  UNL1        0.0005
     32 C         140.1360  140.1765  168.7394 C.ar    1  UNL1        0.0204
     33 C         140.4540  139.9639  170.1899 C.ar    1  UNL1        0.0989
     34 N         141.6827  140.5836  170.7869 N.ar    1  UNL1       -0.2426
     35 C         142.5933  141.4157  169.9334 C.ar    1  UNL1        0.0962
@<TRIPOS>BOND
     1     1     2    1
     2     2     3   ar
     3     3     4   ar
     4     4     5   ar
     5     5     6   ar
     6     6    12    1
     7    12    13   ar
     8    13    14   ar
     9    14    15   ar
    10    15    16    1
    11    15    17   ar
    12    17    18   ar
    13    18    19    1
    14     6     7   ar
    15     7    20    1
    16    20    21    1
    17     5     8    1
    18     8     9    1
    19     9    24    1
    20    24    25    1
    21    25    26    2
    22    25    27   am
    23    27    29    1
    24    29    30    1
    25    30    31   ar
    26    31    32   ar
    27    32    33   ar
    28    33    34   ar
    29    34    35   ar
    30     9    10   am
    31    10    11    2
    32     7     2   ar
    33    35    30   ar
    34    10     4    1
    35    18    12   ar
    36    21    22    1
    37    21    23    1
    38    27    28    1
@<TRIPOS>MOLECULE
*****
 35 38 0 0 0
SMALL
GASTEIGER

@<TRIPOS>ATOM
      1 C         142.7810  142.7687  158.5638 C.3     1  UNL1        0.0518
      2 C         142.4582  142.2021  159.9147 C.ar    1  UNL1        0.0568
      3 N         143.0940  140.9190  160.3612 N.ar    1  UNL1       -0.2456
      4 C         142.7712  140.3524  161.7120 C.ar    1  UNL1        0.1319
      5 C         141.8126  141.0688  162.6163 C.ar    1  UNL1        0.0196
      6 C         141.1767  142.3518  162.1698 C.ar    1  UNL1       -0.0015
      7 C         141.4996  142.9185  160.8189 C.ar    1  UNL1        0.0068
      8 C         141.6882  140.2745  163.8827 C.3     1  UNL1        0.1226
      9 N         142.5700  139.0672  163.7610 N.am    1  UNL1       -0.2623
     10 C         143.2394  139.1153  162.4195 C.2     1  UNL1        0.2671
     11 O         144.2069  138.1039  161.8802 O.2     1  UNL1       -0.2682
     12 C         140.2180  143.0683  163.0741 C.ar    1  UNL1        0.0102
     13 C         138.7547  142.7427  163.0247 C.ar    1  UNL1        0.0017
     14 C         137.7959  143.4591  163.9289 C.ar    1  UNL1        0.0114
     15 C         138.3007  144.5012  164.8824 C.ar    1  UNL1        0.0585
     16 CL        137.3419  145.2176  165.7866 Cl      1  UNL1       -0.0822
     17 C         139.7641  144.8268  164.9318 C.ar    1  UNL1        0.0228
     18 C         140.7228  144.1104  164.0276 C.ar    1  UNL1        0.0585
     19 CL        142.1862  144.4360  164.0770 Cl      1  UNL1       -0.0822
     20 C         140.8637  144.2016  160.3724 C.3     1  UNL1        0.0934
     21 N         141.5393  145.5110  160.6533 N.3     1  UNL1       -0.3174
     22 H         141.5616  145.6729  161.6602 H       1  UNL1        0.1192
     23 H         141.0230  146.2644  160.1992 H       1  UNL1        0.1192
     24 C         142.7508  137.9993  164.7987 C.3     1  UNL1        0.1796
     25 C         143.0592  138.3765  166.2174 C.2     1  UNL1        0.2430
     26 O         144.2161  137.7392  166.9283 O.2     1  UNL1       -0.2732
     27 N         142.2107  139.3910  166.9251 N.am    1  UNL1       -0.2990
     28 H         141.4514  139.8093  166.4586 H       1  UNL1        0.1498
     29 C         142.5192  139.7682  168.3438 C.3     1  UNL1        0.1179
     30 C         141.6518  140.7591  169.0618 C.ar    1  UNL1        0.0166
     31 C         141.9766  142.2223  169.0018 C.ar    1  UNL1        0.0005
     32 C         141.1092  143.2132  169.7198 C.ar    1  UNL1        0.0204
     33 C         139.9168  142.7410  170.4980 C.ar    1  UNL1        0.0989
     34 N         139.5920  141.2778  170.5581 N.ar    1  UNL1       -0.2426
     35 C         140.4595  140.2869  169.8400 C.ar    1  UNL1        0.0962
@<TRIPOS>BOND
     1     1     2    1
     2     2     3   ar
     3     3     4   ar
     4     4     5   ar
     5     5     6   ar
     6     6    12    1
     7    12    13   ar
     8    13    14   ar
     9    14    15   ar
    10    15    16    1
    11    15    17   ar
    12    17    18   ar
    13    18    19    1
    14     6     7   ar
    15     7    20    1
    16    20    21    1
    17     5     8    1
    18     8     9    1
    19     9    24    1
    20    24    25    1
    21    25    26    2
    22    25    27   am
    23    27    29    1
    24    29    30    1
    25    30    31   ar
    26    31    32   ar
    27    32    33   ar
    28    33    34   ar
    29    34    35   ar
    30     9    10   am
    31    10    11    2
    32     7     2   ar
    33    35    30   ar
    34    10     4    1
    35    18    12   ar
    36    21    22    1
    37    21    23    1
    38    27    28    1
@<TRIPOS>MOLECULE
*****
 35 38 0 0 0
SMALL
GASTEIGER

@<TRIPOS>ATOM
      1 C         142.5776  144.3078  157.5054 C.3     1  UNL1        0.0518
      2 C         142.2840  143.4020  158.6646 C.ar    1  UNL1        0.0568
      3 N         142.7327  141.9711  158.6307 N.ar    1  UNL1       -0.2456
      4 C         142.4392  141.0654  159.7897 C.ar    1  UNL1        0.1319
      5 C         141.6969  141.5906  160.9827 C.ar    1  UNL1        0.0196
      6 C         141.2482  143.0215  161.0167 C.ar    1  UNL1       -0.0015
      7 C         141.5418  143.9272  159.8575 C.ar    1  UNL1        0.0068
      8 C         141.5528  140.4698  161.9693 C.3     1  UNL1        0.1226
      9 N         142.2059  139.2520  161.3859 N.am    1  UNL1       -0.2623
     10 C         142.7538  139.6201  160.0389 C.2     1  UNL1        0.2671
     11 O         143.4874  138.7037  159.1051 O.2     1  UNL1       -0.2682
     12 C         140.5060  143.5467  162.2097 C.ar    1  UNL1        0.0102
     13 C         141.2608  144.1538  163.3550 C.ar    1  UNL1        0.0017
     14 C         140.5186  144.6790  164.5480 C.ar    1  UNL1        0.0114
     15 C         139.0216  144.5972  164.5956 C.ar    1  UNL1        0.0585
     16 CL        138.2795  145.1225  165.7886 Cl      1  UNL1       -0.0822
     17 C         138.2668  143.9902  163.4503 C.ar    1  UNL1        0.0228
     18 C         139.0090  143.4649  162.2573 C.ar    1  UNL1        0.0585
     19 CL        138.2542  142.8578  161.1120 Cl      1  UNL1       -0.0822
     20 C         141.0931  145.3582  159.8914 C.3     1  UNL1        0.0934
     21 N         139.8091  145.7575  159.2267 N.3     1  UNL1       -0.3174
     22 H         139.8940  145.6291  158.2184 H       1  UNL1        0.1192
     23 H         139.6118  146.7375  159.4292 H       1  UNL1        0.1192
     24 C         142.2955  137.9030  162.0355 C.3     1  UNL1        0.1796
     25 C         142.0737  137.7656  163.5126 C.2     1  UNL1        0.2430
     26 O         141.0762  136.7730  164.0321 O.2     1  UNL1       -0.2732
     27 N         142.8493  138.6207  164.4704 N.am    1  UNL1       -0.2990
     28 H         143.5040  139.2722  164.1295 H       1  UNL1        0.1498
     29 C         142.6275  138.4833  165.9474 C.3     1  UNL1        0.1179
     30 C         142.7263  139.6878  166.8359 C.ar    1  UNL1        0.0166
     31 C         142.8124  141.0589  166.2338 C.ar    1  UNL1        0.0005
     32 C         142.9113  142.2634  167.1222 C.ar    1  UNL1        0.0204
     33 C         142.9241  142.0968  168.6130 C.ar    1  UNL1        0.0989
     34 N         142.8380  140.7257  169.2152 N.ar    1  UNL1       -0.2426
     35 C         142.7392  139.5212  168.3266 C.ar    1  UNL1        0.0962
@<TRIPOS>BOND
     1     1     2    1
     2     2     3   ar
     3     3     4   ar
     4     4     5   ar
     5     5     6   ar
     6     6    12    1
     7    12    13   ar
     8    13    14   ar
     9    14    15   ar
    10    15    16    1
    11    15    17   ar
    12    17    18   ar
    13    18    19    1
    14     6     7   ar
    15     7    20    1
    16    20    21    1
    17     5     8    1
    18     8     9    1
    19     9    24    1
    20    24    25    1
    21    25    26    2
    22    25    27   am
    23    27    29    1
    24    29    30    1
    25    30    31   ar
    26    31    32   ar
    27    32    33   ar
    28    33    34   ar
    29    34    35   ar
    30     9    10   am
    31    10    11    2
    32     7     2   ar
    33    35    30   ar
    34    10     4    1
    35    18    12   ar
    36    21    22    1
    37    21    23    1
    38    27    28    1
@<TRIPOS>MOLECULE
*****
 35 38 0 0 0
SMALL
GASTEIGER

@<TRIPOS>ATOM
      1 C         137.7486  138.4527  166.4779 C.3     1  UNL1        0.0518
      2 C         138.4679  139.7434  166.2192 C.ar    1  UNL1        0.0568
      3 N         138.2798  140.4582  164.9140 N.ar    1  UNL1       -0.2456
      4 C         138.9991  141.7488  164.6553 C.ar    1  UNL1        0.1319
      5 C         139.9065  142.3246  165.7017 C.ar    1  UNL1        0.0196
      6 C         140.0946  141.6097  167.0070 C.ar    1  UNL1       -0.0015
      7 C         139.3753  140.3191  167.2656 C.ar    1  UNL1        0.0068
      8 C         140.4786  143.6037  165.1664 C.3     1  UNL1        0.1226
      9 N         139.9247  143.8184  163.7890 N.am    1  UNL1       -0.2623
     10 C         139.0104  142.6721  163.4731 C.2     1  UNL1        0.2671
     11 O         138.2422  142.4823  162.1988 O.2     1  UNL1       -0.2682
     12 C         141.0020  142.1855  168.0535 C.ar    1  UNL1        0.0102
     13 C         140.4609  143.1496  169.0672 C.ar    1  UNL1        0.0017
     14 C         141.3682  143.7254  170.1138 C.ar    1  UNL1        0.0114
     15 C         142.8166  143.3369  170.1466 C.ar    1  UNL1        0.0585
     16 CL        143.7239  143.9127  171.1932 Cl      1  UNL1       -0.0822
     17 C         143.3577  142.3728  169.1329 C.ar    1  UNL1        0.0228
     18 C         142.4504  141.7970  168.0864 C.ar    1  UNL1        0.0585
     19 CL        142.9916  140.8328  167.0727 Cl      1  UNL1       -0.0822
     20 C         139.5634  139.6042  168.5709 C.3     1  UNL1        0.0934
     21 N         138.6677  139.9164  169.7329 N.3     1  UNL1       -0.3174
     22 H         138.8297  140.8759  170.0389 H       1  UNL1        0.1192
     23 H         138.8707  139.2759  170.5004 H       1  UNL1        0.1192
     24 C         140.2314  144.9763  162.8861 C.3     1  UNL1        0.1796
     25 C         140.6497  144.7302  161.4667 C.2     1  UNL1        0.2430
     26 O         142.0977  144.8188  161.0855 O.2     1  UNL1       -0.2732
     27 N         139.6200  144.3956  160.4286 N.am    1  UNL1       -0.2990
     28 H         138.6696  144.3375  160.6787 H       1  UNL1        0.1498
     29 C         140.0383  144.1496  159.0093 C.3     1  UNL1        0.1179
     30 C         139.2315  143.2335  158.1377 C.ar    1  UNL1        0.0166
     31 C         138.7044  141.9429  158.6913 C.ar    1  UNL1        0.0005
     32 C         137.8976  141.0268  157.8197 C.ar    1  UNL1        0.0204
     33 C         137.6177  141.4013  156.3944 C.ar    1  UNL1        0.0989
     34 N         138.1447  142.6919  155.8407 N.ar    1  UNL1       -0.2426
     35 C         138.9516  143.6080  156.7124 C.ar    1  UNL1        0.0962
@<TRIPOS>BOND
     1     1     2    1
     2     2     3   ar
     3     3     4   ar
     4     4     5   ar
     5     5     6   ar
     6     6    12    1
     7    12    13   ar
     8    13    14   ar
     9    14    15   ar
    10    15    16    1
    11    15    17   ar
    12    17    18   ar
    13    18    19    1
    14     6     7   ar
    15     7    20    1
    16    20    21    1
    17     5     8    1
    18     8     9    1
    19     9    24    1
    20    24    25    1
    21    25    26    2
    22    25    27   am
    23    27    29    1
    24    29    30    1
    25    30    31   ar
    26    31    32   ar
    27    32    33   ar
    28    33    34   ar
    29    34    35   ar
    30     9    10   am
    31    10    11    2
    32     7     2   ar
    33    35    30   ar
    34    10     4    1
    35    18    12   ar
    36    21    22    1
    37    21    23    1
    38    27    28    1
@<TRIPOS>MOLECULE
*****
 35 38 0 0 0
SMALL
GASTEIGER

@<TRIPOS>ATOM
      1 C         138.1428  142.1020  157.8698 C.3     1  UNL1        0.0518
      2 C         138.6148  141.7456  159.2483 C.ar    1  UNL1        0.0568
      3 N         138.1289  140.4879  159.9056 N.ar    1  UNL1       -0.2456
      4 C         138.6007  140.1315  161.2841 C.ar    1  UNL1        0.1319
      5 C         139.5586  141.0328  162.0053 C.ar    1  UNL1        0.0196
      6 C         140.0445  142.2905  161.3481 C.ar    1  UNL1       -0.0015
      7 C         139.5725  142.6469  159.9695 C.ar    1  UNL1        0.0068
      8 C         139.8469  140.4251  163.3460 C.3     1  UNL1        0.1226
      9 N         139.0672  139.1481  163.4534 N.am    1  UNL1       -0.2623
     10 C         138.2971  138.9667  162.1790 C.2     1  UNL1        0.2671
     11 O         137.3836  137.8215  161.8563 O.2     1  UNL1       -0.2682
     12 C         141.0023  143.1919  162.0693 C.ar    1  UNL1        0.0102
     13 C         142.4807  142.9790  161.9318 C.ar    1  UNL1        0.0017
     14 C         143.4386  143.8803  162.6529 C.ar    1  UNL1        0.0114
     15 C         142.9180  144.9946  163.5116 C.ar    1  UNL1        0.0585
     16 CL        143.8759  145.8959  164.2327 Cl      1  UNL1       -0.0822
     17 C         141.4396  145.2075  163.6491 C.ar    1  UNL1        0.0228
     18 C         140.4817  144.3062  162.9279 C.ar    1  UNL1        0.0585
     19 CL        139.0033  144.5192  163.0655 Cl      1  UNL1       -0.0822
     20 C         140.0585  143.9047  159.3122 C.3     1  UNL1        0.0934
     21 N         141.2982  143.8791  158.4681 N.3     1  UNL1       -0.3174
     22 H         142.1054  143.6708  159.0558 H       1  UNL1        0.1192
     23 H         141.4263  144.7886  158.0245 H       1  UNL1        0.1192
     24 C         139.0591  138.2162  164.6287 C.3     1  UNL1        0.1796
     25 C         138.7356  138.7379  165.9973 C.2     1  UNL1        0.2430
     26 O         137.3982  138.4503  166.6128 O.2     1  UNL1       -0.2732
     27 N         139.7493  139.5473  166.7506 N.am    1  UNL1       -0.2990
     28 H         140.6271  139.7360  166.3467 H       1  UNL1        0.1498
     29 C         139.4257  140.0689  168.1192 C.3     1  UNL1        0.1179
     30 C         140.3356  141.0636  168.7771 C.ar    1  UNL1        0.0166
     31 C         141.6798  141.3594  168.1809 C.ar    1  UNL1        0.0005
     32 C         142.5896  142.3541  168.8388 C.ar    1  UNL1        0.0204
     33 C         142.1552  143.0530  170.0930 C.ar    1  UNL1        0.0989
     34 N         140.8109  142.7572  170.6892 N.ar    1  UNL1       -0.2426
     35 C         139.9012  141.7625  170.0312 C.ar    1  UNL1        0.0962
@<TRIPOS>BOND
     1     1     2    1
     2     2     3   ar
     3     3     4   ar
     4     4     5   ar
     5     5     6   ar
     6     6    12    1
     7    12    13   ar
     8    13    14   ar
     9    14    15   ar
    10    15    16    1
    11    15    17   ar
    12    17    18   ar
    13    18    19    1
    14     6     7   ar
    15     7    20    1
    16    20    21    1
    17     5     8    1
    18     8     9    1
    19     9    24    1
    20    24    25    1
    21    25    26    2
    22    25    27   am
    23    27    29    1
    24    29    30    1
    25    30    31   ar
    26    31    32   ar
    27    32    33   ar
    28    33    34   ar
    29    34    35   ar
    30     9    10   am
    31    10    11    2
    32     7     2   ar
    33    35    30   ar
    34    10     4    1
    35    18    12   ar
    36    21    22    1
    37    21    23    1
    38    27    28    1
@<TRIPOS>MOLECULE
*****
 35 38 0 0 0
SMALL
GASTEIGER

@<TRIPOS>ATOM
      1 C         142.3829  145.1192  156.5653 C.3     1  UNL1        0.0518
      2 C         142.3675  144.1508  157.7109 C.ar    1  UNL1        0.0568
      3 N         143.0629  142.8278  157.5838 N.ar    1  UNL1       -0.2456
      4 C         143.0476  141.8594  158.7292 C.ar    1  UNL1        0.1319
      5 C         142.3369  142.2141  160.0017 C.ar    1  UNL1        0.0196
      6 C         141.6416  143.5371  160.1288 C.ar    1  UNL1       -0.0015
      7 C         141.6570  144.5054  158.9833 C.ar    1  UNL1        0.0068
      8 C         142.4907  141.0655  160.9542 C.3     1  UNL1        0.1226
      9 N         143.2964  140.0010  160.2703 N.am    1  UNL1       -0.2623
     10 C         143.6405  140.4916  158.8952 C.2     1  UNL1        0.2671
     11 O         144.4377  139.7455  157.8667 O.2     1  UNL1       -0.2682
     12 C         140.9310  143.8918  161.4013 C.ar    1  UNL1        0.0102
     13 C         141.6632  144.6147  162.4928 C.ar    1  UNL1        0.0017
     14 C         140.9527  144.9694  163.7653 C.ar    1  UNL1        0.0114
     15 C         139.5099  144.6013  163.9462 C.ar    1  UNL1        0.0585
     16 CL        138.7993  144.9561  165.2187 Cl      1  UNL1       -0.0822
     17 C         138.7776  143.8785  162.8548 C.ar    1  UNL1        0.0228
     18 C         139.4882  143.5237  161.5823 C.ar    1  UNL1        0.0585
     19 CL        138.7559  142.8008  160.4908 Cl      1  UNL1       -0.0822
     20 C         140.9616  145.8285  159.1103 C.3     1  UNL1        0.0934
     21 N         139.5957  146.0177  158.5201 N.3     1  UNL1       -0.3174
     22 H         139.6523  145.9515  157.5038 H       1  UNL1        0.1192
     23 H         139.2364  146.9358  158.7816 H       1  UNL1        0.1192
     24 C         143.6890  138.6781  160.8582 C.3     1  UNL1        0.1796
     25 C         143.1896  138.2831  162.2164 C.2     1  UNL1        0.2430
     26 O         143.9971  138.6113  163.4371 O.2     1  UNL1       -0.2732
     27 N         141.8827  137.5598  162.3539 N.am    1  UNL1       -0.2990
     28 H         141.3527  137.3443  161.5527 H       1  UNL1        0.1498
     29 C         141.3834  137.1648  163.7121 C.3     1  UNL1        0.1179
     30 C         140.4511  138.0704  164.4609 C.ar    1  UNL1        0.0166
     31 C         139.2096  137.5129  165.0918 C.ar    1  UNL1        0.0005
     32 C         138.2773  138.4185  165.8406 C.ar    1  UNL1        0.0204
     33 C         138.5864  139.8816  165.9585 C.ar    1  UNL1        0.0989
     34 N         139.8278  140.4391  165.3275 N.ar    1  UNL1       -0.2426
     35 C         140.7601  139.5335  164.5787 C.ar    1  UNL1        0.0962
@<TRIPOS>BOND
     1     1     2    1
     2     2     3   ar
     3     3     4   ar
     4     4     5   ar
     5     5     6   ar
     6     6    12    1
     7    12    13   ar
     8    13    14   ar
     9    14    15   ar
    10    15    16    1
    11    15    17   ar
    12    17    18   ar
    13    18    19    1
    14     6     7   ar
    15     7    20    1
    16    20    21    1
    17     5     8    1
    18     8     9    1
    19     9    24    1
    20    24    25    1
    21    25    26    2
    22    25    27   am
    23    27    29    1
    24    29    30    1
    25    30    31   ar
    26    31    32   ar
    27    32    33   ar
    28    33    34   ar
    29    34    35   ar
    30     9    10   am
    31    10    11    2
    32     7     2   ar
    33    35    30   ar
    34    10     4    1
    35    18    12   ar
    36    21    22    1
    37    21    23    1
    38    27    28    1
