@<TRIPOS>MOLECULE
*****
 30 33 0 0 0
SMALL
GASTEIGER

@<TRIPOS>ATOM
      1 C         141.6529  141.9680  169.3216 C.ar    1  UNL1        0.1366
      2 C         140.5570  140.9812  169.5957 C.ar    1  UNL1        0.0353
      3 C         139.6741  140.5111  168.4779 C.ar    1  UNL1        0.0631
      4 CL        138.5781  139.5243  168.7522 Cl      1  UNL1       -0.0821
      5 C         139.8870  141.0279  167.0860 C.ar    1  UNL1        0.0574
      6 C         139.1805  140.7486  165.7926 C.ar    1  UNL1        0.0850
      7 CL        138.0187  139.8185  165.6056 Cl      1  UNL1       -0.0799
      8 C         139.8398  141.5628  164.7191 C.ar    1  UNL1        0.1144
      9 N         140.9538  142.3453  165.3490 N.ar    1  UNL1       -0.3061
     10 C         140.9829  142.0147  166.8118 C.ar    1  UNL1        0.1460
     11 N         141.8659  142.4847  167.9296 N.ar    1  UNL1       -0.2236
     12 C         141.8766  143.2921  164.6405 C.3     1  UNL1        0.1031
     13 C         143.3378  142.9724  164.5286 C.3     1  UNL1        0.0255
     14 C         144.2605  143.9193  163.8201 C.3     1  UNL1        0.0191
     15 C         143.7220  145.1858  163.2235 C.3     1  UNL1        0.0687
     16 N         142.2608  145.5055  163.3354 N.3     1  UNL1       -0.2959
     17 C         141.3381  144.5587  164.0439 C.3     1  UNL1        0.0914
     18 H         141.9072  145.6044  162.3837 H       1  UNL1        0.1233
     19 N         143.9494  142.8517  170.1554 N.am    1  UNL1       -0.3241
     20 C         142.5358  142.4380  170.4394 C.2     1  UNL1        0.2606
     21 O         142.0053  142.4943  171.8413 O.2     1  UNL1       -0.2687
     22 H         144.5289  143.1602  170.8890 H       1  UNL1        0.1453
     23 H         144.2977  142.8147  169.2353 H       1  UNL1        0.1453
     24 C         139.4530  141.5898  163.2700 C.1     1  UNL1       -0.0437
     25 C         139.0662  141.6167  161.8210 C.1     1  UNL1       -0.0560
     26 C         138.6794  141.6436  160.3720 C.3     1  UNL1        0.1786
     27 C         138.4655  140.4462  159.4943 C.3     1  UNL1        0.0457
     28 C         138.0925  140.9352  158.1261 C.3     1  UNL1        0.0357
     29 C         138.0760  142.4347  158.1583 C.3     1  UNL1        0.1435
     30 O         138.4388  142.8725  159.5464 O.3     1  UNL1       -0.3434
@<TRIPOS>BOND
     1    19    20   am
     2    20    21    2
     3    20     1    1
     4     1     2   ar
     5     2     3   ar
     6     3     4    1
     7     3     5   ar
     8     5     6   ar
     9     6     7    1
    10     6     8   ar
    11     8    24    1
    12    24    25    3
    13    25    26    1
    14    26    27    1
    15    27    28    1
    16    28    29    1
    17    29    30    1
    18     8     9   ar
    19    12     9    1
    20    12    13    1
    21    13    14    1
    22    14    15    1
    23    15    16    1
    24    16    17    1
    25     9    10   ar
    26    10    11   ar
    27    11     1   ar
    28    10     5   ar
    29    30    26    1
    30    17    12    1
    31    19    22    1
    32    19    23    1
    33    16    18    1
@<TRIPOS>MOLECULE
*****
 30 33 0 0 0
SMALL
GASTEIGER

@<TRIPOS>ATOM
      1 C         140.8138  142.0237  169.4576 C.ar    1  UNL1        0.1366
      2 C         141.6269  140.7971  169.7481 C.ar    1  UNL1        0.0353
      3 C         142.0897  139.9202  168.6226 C.ar    1  UNL1        0.0631
      4 CL        142.9028  138.6936  168.9132 Cl      1  UNL1       -0.0821
      5 C         141.7395  140.2699  167.2066 C.ar    1  UNL1        0.0574
      6 C         142.0526  139.6013  165.9009 C.ar    1  UNL1        0.0850
      7 CL        142.8460  138.3407  165.7238 Cl      1  UNL1       -0.0799
      8 C         141.4331  140.4147  164.8034 C.ar    1  UNL1        0.1144
      9 N         140.7371  141.5860  165.4308 N.ar    1  UNL1       -0.3061
     10 C         140.9265  141.4964  166.9162 C.ar    1  UNL1        0.1460
     11 N         140.4637  142.3734  168.0417 N.ar    1  UNL1       -0.2236
     12 C         139.9839  142.6585  164.7011 C.3     1  UNL1        0.1031
     13 C         138.6355  142.3617  164.1148 C.3     1  UNL1        0.0255
     14 C         137.8825  143.4342  163.3851 C.3     1  UNL1        0.0191
     15 C         138.4777  144.8036  163.2418 C.3     1  UNL1        0.0687
     16 N         139.8261  145.1004  163.8281 N.3     1  UNL1       -0.2959
     17 C         140.5792  144.0279  164.5577 C.3     1  UNL1        0.0914
     18 H         139.6984  145.8698  164.4854 H       1  UNL1        0.1233
     19 N         139.9880  144.3317  170.3184 N.am    1  UNL1       -0.3241
     20 C         140.3510  142.9007  170.5831 C.2     1  UNL1        0.2606
     21 O         140.2511  142.3465  171.9734 O.2     1  UNL1       -0.2687
     22 H         139.6842  144.9073  171.0571 H       1  UNL1        0.1453
     23 H         140.0535  144.6955  169.4059 H       1  UNL1        0.1453
     24 C         141.4981  140.1103  163.3360 C.1     1  UNL1       -0.0437
     25 C         141.5632  139.8058  161.8687 C.1     1  UNL1       -0.0560
     26 C         141.6283  139.5013  160.4014 C.3     1  UNL1        0.1786
     27 C         142.4345  140.2487  159.3808 C.3     1  UNL1        0.0457
     28 C         142.2031  139.6053  158.0457 C.3     1  UNL1        0.0357
     29 C         141.2539  138.4604  158.2411 C.3     1  UNL1        0.1435
     30 O         140.8987  138.3962  159.6971 O.3     1  UNL1       -0.3434
@<TRIPOS>BOND
     1    19    20   am
     2    20    21    2
     3    20     1    1
     4     1     2   ar
     5     2     3   ar
     6     3     4    1
     7     3     5   ar
     8     5     6   ar
     9     6     7    1
    10     6     8   ar
    11     8    24    1
    12    24    25    3
    13    25    26    1
    14    26    27    1
    15    27    28    1
    16    28    29    1
    17    29    30    1
    18     8     9   ar
    19    12     9    1
    20    12    13    1
    21    13    14    1
    22    14    15    1
    23    15    16    1
    24    16    17    1
    25     9    10   ar
    26    10    11   ar
    27    11     1   ar
    28    10     5   ar
    29    30    26    1
    30    17    12    1
    31    19    22    1
    32    19    23    1
    33    16    18    1
@<TRIPOS>MOLECULE
*****
 30 33 0 0 0
SMALL
GASTEIGER

@<TRIPOS>ATOM
      1 C         141.6267  141.1672  169.3695 C.ar    1  UNL1        0.1366
      2 C         140.2521  140.5949  169.5502 C.ar    1  UNL1        0.0353
      3 C         139.5220  140.0122  168.3765 C.ar    1  UNL1        0.0631
      4 CL        138.1473  139.4398  168.5572 Cl      1  UNL1       -0.0821
      5 C         140.1667  140.0018  167.0221 C.ar    1  UNL1        0.0574
      6 C         139.6950  139.4993  165.6898 C.ar    1  UNL1        0.0850
      7 CL        138.3724  138.8492  165.4107 Cl      1  UNL1       -0.0799
      8 C         140.7782  139.7611  164.6857 C.ar    1  UNL1        0.1144
      9 N         141.9193  140.4254  165.3975 N.ar    1  UNL1       -0.3061
     10 C         141.5413  140.5742  166.8415 C.ar    1  UNL1        0.1460
     11 N         142.2714  141.1568  168.0152 N.ar    1  UNL1       -0.2236
     12 C         143.2115  140.8639  164.7746 C.3     1  UNL1        0.1031
     13 C         143.5317  142.3250  164.6614 C.3     1  UNL1        0.0255
     14 C         144.8239  142.7634  164.0386 C.3     1  UNL1        0.0191
     15 C         145.7959  141.7409  163.5290 C.3     1  UNL1        0.0687
     16 N         145.4757  140.2798  163.6422 N.3     1  UNL1       -0.2959
     17 C         144.1835  139.8414  164.2650 C.3     1  UNL1        0.0914
     18 H         146.2250  139.8557  164.1890 H       1  UNL1        0.1233
     19 N         143.8291  142.0211  170.4513 N.am    1  UNL1       -0.3241
     20 C         142.3567  141.7499  170.5432 C.2     1  UNL1        0.2606
     21 O         141.6144  142.0614  171.8088 O.2     1  UNL1       -0.2687
     22 H         144.3083  142.4035  171.2216 H       1  UNL1        0.1453
     23 H         144.3164  141.8166  169.6206 H       1  UNL1        0.1453
     24 C         140.7289  139.4187  163.2261 C.1     1  UNL1       -0.0437
     25 C         140.6796  139.0763  161.7666 C.1     1  UNL1       -0.0560
     26 C         140.6302  138.7339  160.3071 C.3     1  UNL1        0.1786
     27 C         141.8118  138.4504  159.4276 C.3     1  UNL1        0.0457
     28 C         141.3024  138.1562  158.0477 C.3     1  UNL1        0.0357
     29 C         139.8062  138.2579  158.0744 C.3     1  UNL1        0.1435
     30 O         139.3907  138.6150  159.4708 O.3     1  UNL1       -0.3434
@<TRIPOS>BOND
     1    19    20   am
     2    20    21    2
     3    20     1    1
     4     1     2   ar
     5     2     3   ar
     6     3     4    1
     7     3     5   ar
     8     5     6   ar
     9     6     7    1
    10     6     8   ar
    11     8    24    1
    12    24    25    3
    13    25    26    1
    14    26    27    1
    15    27    28    1
    16    28    29    1
    17    29    30    1
    18     8     9   ar
    19    12     9    1
    20    12    13    1
    21    13    14    1
    22    14    15    1
    23    15    16    1
    24    16    17    1
    25     9    10   ar
    26    10    11   ar
    27    11     1   ar
    28    10     5   ar
    29    30    26    1
    30    17    12    1
    31    19    22    1
    32    19    23    1
    33    16    18    1
@<TRIPOS>MOLECULE
*****
 30 33 0 0 0
SMALL
GASTEIGER

@<TRIPOS>ATOM
      1 C         142.0314  144.2115  159.7875 C.ar    1  UNL1        0.1366
      2 C         141.0061  145.2686  160.0730 C.ar    1  UNL1        0.0353
      3 C         140.3768  145.3554  161.4318 C.ar    1  UNL1        0.0631
      4 CL        139.3515  146.4125  161.7173 Cl      1  UNL1       -0.0821
      5 C         140.7726  144.3852  162.5051 C.ar    1  UNL1        0.0574
      6 C         140.3276  144.2268  163.9288 C.ar    1  UNL1        0.0850
      7 CL        139.3109  145.0745  164.6342 Cl      1  UNL1       -0.0799
      8 C         141.0778  143.0718  164.5232 C.ar    1  UNL1        0.1144
      9 N         141.9864  142.5164  163.4668 N.ar    1  UNL1       -0.3061
     10 C         141.7978  143.3282  162.2196 C.ar    1  UNL1        0.1460
     11 N         142.4272  143.2413  160.8608 N.ar    1  UNL1       -0.2236
     12 C         142.9198  141.3535  163.6292 C.3     1  UNL1        0.1031
     13 C         142.3697  139.9703  163.8137 C.3     1  UNL1        0.0255
     14 C         143.3031  138.8075  163.9761 C.3     1  UNL1        0.0191
     15 C         144.7867  139.0278  163.9539 C.3     1  UNL1        0.0687
     16 N         145.3369  140.4110  163.7694 N.3     1  UNL1       -0.2959
     17 C         144.4034  141.5738  163.6070 C.3     1  UNL1        0.0914
     18 H         145.9236  140.3857  162.9354 H       1  UNL1        0.1233
     19 N         142.6739  145.3256  157.5301 N.am    1  UNL1       -0.3241
     20 C         142.6607  144.1247  158.4287 C.2     1  UNL1        0.2606
     21 O         143.2769  142.8369  157.9685 O.2     1  UNL1       -0.2687
     22 H         143.0870  145.2686  156.6383 H       1  UNL1        0.1453
     23 H         142.2695  146.1708  157.8321 H       1  UNL1        0.1453
     24 C         140.9429  142.5618  165.9274 C.1     1  UNL1       -0.0437
     25 C         140.8081  142.0519  167.3315 C.1     1  UNL1       -0.0560
     26 C         140.6733  141.5419  168.7357 C.3     1  UNL1        0.1786
     27 C         139.9403  140.3029  169.1571 C.3     1  UNL1        0.0457
     28 C         140.0619  140.1766  170.6469 C.3     1  UNL1        0.0357
     29 C         140.8699  141.3375  171.1461 C.3     1  UNL1        0.1435
     30 O         141.2478  142.1813  169.9649 O.3     1  UNL1       -0.3434
@<TRIPOS>BOND
     1    19    20   am
     2    20    21    2
     3    20     1    1
     4     1     2   ar
     5     2     3   ar
     6     3     4    1
     7     3     5   ar
     8     5     6   ar
     9     6     7    1
    10     6     8   ar
    11     8    24    1
    12    24    25    3
    13    25    26    1
    14    26    27    1
    15    27    28    1
    16    28    29    1
    17    29    30    1
    18     8     9   ar
    19    12     9    1
    20    12    13    1
    21    13    14    1
    22    14    15    1
    23    15    16    1
    24    16    17    1
    25     9    10   ar
    26    10    11   ar
    27    11     1   ar
    28    10     5   ar
    29    30    26    1
    30    17    12    1
    31    19    22    1
    32    19    23    1
    33    16    18    1
@<TRIPOS>MOLECULE
*****
 30 33 0 0 0
SMALL
GASTEIGER

@<TRIPOS>ATOM
      1 C         140.3705  140.5559  169.0897 C.ar    1  UNL1        0.1366
      2 C         141.6084  141.2733  169.5402 C.ar    1  UNL1        0.0353
      3 C         142.5230  141.8984  168.5288 C.ar    1  UNL1        0.0631
      4 CL        143.7609  142.6158  168.9794 Cl      1  UNL1       -0.0821
      5 C         142.1997  141.8060  167.0670 C.ar    1  UNL1        0.0574
      6 C         142.9069  142.3202  165.8482 C.ar    1  UNL1        0.0850
      7 CL        144.1897  143.0975  165.8355 Cl      1  UNL1       -0.0799
      8 C         142.1061  141.9205  164.6445 C.ar    1  UNL1        0.1144
      9 N         140.9040  141.1594  165.1193 N.ar    1  UNL1       -0.3061
     10 C         140.9619  141.0886  166.6166 C.ar    1  UNL1        0.1460
     11 N         140.0473  140.4636  167.6279 N.ar    1  UNL1       -0.2236
     12 C         139.8322  140.5721  164.2496 C.3     1  UNL1        0.1031
     13 C         140.1185  139.3499  163.4284 C.3     1  UNL1        0.0255
     14 C         139.0467  138.7627  162.5588 C.3     1  UNL1        0.0191
     15 C         137.6885  139.3976  162.5103 C.3     1  UNL1        0.0687
     16 N         137.4022  140.6198  163.3315 N.3     1  UNL1       -0.2959
     17 C         138.4741  141.2070  164.2011 C.3     1  UNL1        0.0914
     18 H         136.6208  140.3864  163.9443 H       1  UNL1        0.1233
     19 N         139.9862  139.5309  171.4459 N.am    1  UNL1       -0.3241
     20 C         139.4559  139.9309  170.1010 C.2     1  UNL1        0.2606
     21 O         138.0109  139.7057  169.7675 O.2     1  UNL1       -0.2687
     22 H         139.3859  139.1207  172.1097 H       1  UNL1        0.1453
     23 H         140.9347  139.6787  171.6648 H       1  UNL1        0.1453
     24 C         142.4476  142.2281  163.2165 C.1     1  UNL1       -0.0437
     25 C         142.7890  142.5356  161.7887 C.1     1  UNL1       -0.0560
     26 C         143.1304  142.8431  160.3608 C.3     1  UNL1        0.1786
     27 C         144.2997  142.2965  159.5966 C.3     1  UNL1        0.0457
     28 C         144.2544  142.8668  158.2099 C.3     1  UNL1        0.0357
     29 C         143.0573  143.7658  158.1172 C.3     1  UNL1        0.1435
     30 O         142.3626  143.7511  159.4466 O.3     1  UNL1       -0.3434
@<TRIPOS>BOND
     1    19    20   am
     2    20    21    2
     3    20     1    1
     4     1     2   ar
     5     2     3   ar
     6     3     4    1
     7     3     5   ar
     8     5     6   ar
     9     6     7    1
    10     6     8   ar
    11     8    24    1
    12    24    25    3
    13    25    26    1
    14    26    27    1
    15    27    28    1
    16    28    29    1
    17    29    30    1
    18     8     9   ar
    19    12     9    1
    20    12    13    1
    21    13    14    1
    22    14    15    1
    23    15    16    1
    24    16    17    1
    25     9    10   ar
    26    10    11   ar
    27    11     1   ar
    28    10     5   ar
    29    30    26    1
    30    17    12    1
    31    19    22    1
    32    19    23    1
    33    16    18    1
@<TRIPOS>MOLECULE
*****
 30 33 0 0 0
SMALL
GASTEIGER

@<TRIPOS>ATOM
      1 C         139.6114  140.7252  166.8738 C.ar    1  UNL1        0.1366
      2 C         139.2500  139.2723  166.7820 C.ar    1  UNL1        0.0353
      3 C         138.8444  138.6821  165.4640 C.ar    1  UNL1        0.0631
      4 CL        138.4829  137.2292  165.3723 Cl      1  UNL1       -0.0821
      5 C         138.8002  139.5448  164.2378 C.ar    1  UNL1        0.0574
      6 C         138.4416  139.2455  162.8124 C.ar    1  UNL1        0.0850
      7 CL        138.0176  137.9123  162.2712 Cl      1  UNL1       -0.0799
      8 C         138.5813  140.5134  162.0231 C.ar    1  UNL1        0.1144
      9 N         139.0264  141.5964  162.9608 N.ar    1  UNL1       -0.3061
     10 C         139.1616  140.9977  164.3295 C.ar    1  UNL1        0.1460
     11 N         139.5672  141.5879  165.6475 N.ar    1  UNL1       -0.2236
     12 C         139.2899  143.0268  162.5941 C.3     1  UNL1        0.1031
     13 C         140.6316  143.4284  162.0571 C.3     1  UNL1        0.0255
     14 C         140.8951  144.8588  161.6904 C.3     1  UNL1        0.0191
     15 C         139.8168  145.8876  161.8608 C.3     1  UNL1        0.0687
     16 N         138.4751  145.4860  162.3979 N.3     1  UNL1       -0.2959
     17 C         138.2117  144.0556  162.7645 C.3     1  UNL1        0.0914
     18 H         137.7864  145.7401  161.6897 H       1  UNL1        0.1233
     19 N         140.9036  142.5246  168.2310 N.am    1  UNL1       -0.3241
     20 C         140.0170  141.3154  168.1918 C.2     1  UNL1        0.2606
     21 O         139.5360  140.6963  169.4706 O.2     1  UNL1       -0.2687
     22 H         141.1698  142.9120  169.0961 H       1  UNL1        0.1453
     23 H         141.2193  142.9310  167.3917 H       1  UNL1        0.1453
     24 C         138.3217  140.6708  160.5541 C.1     1  UNL1       -0.0437
     25 C         138.0620  140.8281  159.0852 C.1     1  UNL1       -0.0560
     26 C         137.8023  140.9855  157.6163 C.3     1  UNL1        0.1786
     27 C         137.5112  142.2740  156.9055 C.3     1  UNL1        0.0457
     28 C         137.3171  141.9668  155.4502 C.3     1  UNL1        0.0357
     29 C         137.4882  140.4886  155.2616 C.3     1  UNL1        0.1435
     30 O         137.7881  139.8821  156.6003 O.3     1  UNL1       -0.3434
@<TRIPOS>BOND
     1    19    20   am
     2    20    21    2
     3    20     1    1
     4     1     2   ar
     5     2     3   ar
     6     3     4    1
     7     3     5   ar
     8     5     6   ar
     9     6     7    1
    10     6     8   ar
    11     8    24    1
    12    24    25    3
    13    25    26    1
    14    26    27    1
    15    27    28    1
    16    28    29    1
    17    29    30    1
    18     8     9   ar
    19    12     9    1
    20    12    13    1
    21    13    14    1
    22    14    15    1
    23    15    16    1
    24    16    17    1
    25     9    10   ar
    26    10    11   ar
    27    11     1   ar
    28    10     5   ar
    29    30    26    1
    30    17    12    1
    31    19    22    1
    32    19    23    1
    33    16    18    1
@<TRIPOS>MOLECULE
*****
 30 33 0 0 0
SMALL
GASTEIGER

@<TRIPOS>ATOM
      1 C         142.3405  140.3170  168.8066 C.ar    1  UNL1        0.1366
      2 C         141.5452  141.4830  169.3143 C.ar    1  UNL1        0.0353
      3 C         140.9005  142.4298  168.3458 C.ar    1  UNL1        0.0631
      4 CL        140.1051  143.5958  168.8536 Cl      1  UNL1       -0.0821
      5 C         141.0511  142.2105  166.8696 C.ar    1  UNL1        0.0574
      6 C         140.5341  142.9703  165.6841 C.ar    1  UNL1        0.0850
      7 CL        139.6896  144.2091  165.7309 Cl      1  UNL1       -0.0799
      8 C         141.0099  142.2738  164.4437 C.ar    1  UNL1        0.1144
      9 N         141.8210  141.0836  164.8626 N.ar    1  UNL1       -0.3061
     10 C         141.8465  141.0445  166.3620 C.ar    1  UNL1        0.1460
     11 N         142.4912  140.0977  167.3305 N.ar    1  UNL1       -0.2236
     12 C         142.4893  140.1044  163.9436 C.3     1  UNL1        0.1031
     13 C         141.6814  139.0325  163.2741 C.3     1  UNL1        0.0255
     14 C         142.3498  138.0534  162.3551 C.3     1  UNL1        0.0191
     15 C         143.8259  138.1461  162.1056 C.3     1  UNL1        0.0687
     16 N         144.6339  139.2181  162.7752 N.3     1  UNL1       -0.2959
     17 C         143.9655  140.1972  163.6942 C.3     1  UNL1        0.0914
     18 H         145.0726  139.7631  162.0330 H       1  UNL1        0.1233
     19 N         143.3404  139.8362  171.1559 N.am    1  UNL1       -0.3241
     20 C         142.9852  139.3702  169.7751 C.2     1  UNL1        0.2606
     21 O         143.2747  137.9574  169.3629 O.2     1  UNL1       -0.2687
     22 H         143.7635  139.2148  171.7916 H       1  UNL1        0.1453
     23 H         143.1504  140.7636  171.4265 H       1  UNL1        0.1453
     24 C         140.7247  142.6939  163.0322 C.1     1  UNL1       -0.0437
     25 C         140.4395  143.1139  161.6208 C.1     1  UNL1       -0.0560
     26 C         140.1543  143.5339  160.2094 C.3     1  UNL1        0.1786
     27 C         140.5843  144.8201  159.5683 C.3     1  UNL1        0.0457
     28 C         140.0847  144.8226  158.1539 C.3     1  UNL1        0.0357
     29 C         139.3460  143.5381  157.9209 C.3     1  UNL1        0.1435
     30 O         139.3890  142.7417  159.1913 O.3     1  UNL1       -0.3434
@<TRIPOS>BOND
     1    19    20   am
     2    20    21    2
     3    20     1    1
     4     1     2   ar
     5     2     3   ar
     6     3     4    1
     7     3     5   ar
     8     5     6   ar
     9     6     7    1
    10     6     8   ar
    11     8    24    1
    12    24    25    3
    13    25    26    1
    14    26    27    1
    15    27    28    1
    16    28    29    1
    17    29    30    1
    18     8     9   ar
    19    12     9    1
    20    12    13    1
    21    13    14    1
    22    14    15    1
    23    15    16    1
    24    16    17    1
    25     9    10   ar
    26    10    11   ar
    27    11     1   ar
    28    10     5   ar
    29    30    26    1
    30    17    12    1
    31    19    22    1
    32    19    23    1
    33    16    18    1
@<TRIPOS>MOLECULE
*****
 30 33 0 0 0
SMALL
GASTEIGER

@<TRIPOS>ATOM
      1 C         139.7617  140.8870  168.9441 C.ar    1  UNL1        0.1366
      2 C         138.7951  139.7777  168.6522 C.ar    1  UNL1        0.0353
      3 C         138.6015  139.3031  167.2425 C.ar    1  UNL1        0.0631
      4 CL        137.6348  138.1938  166.9507 Cl      1  UNL1       -0.0821
      5 C         139.3746  139.9377  166.1247 C.ar    1  UNL1        0.0574
      6 C         139.3941  139.6828  164.6466 C.ar    1  UNL1        0.0850
      7 CL        138.5781  138.6564  163.9182 Cl      1  UNL1       -0.0799
      8 C         140.3728  140.6345  164.0250 C.ar    1  UNL1        0.1144
      9 N         140.9581  141.4776  165.1188 N.ar    1  UNL1       -0.3061
     10 C         140.3412  141.0469  166.4165 C.ar    1  UNL1        0.1460
     11 N         140.5347  141.5216  167.8262 N.ar    1  UNL1       -0.2236
     12 C         141.9808  142.5611  164.9454 C.3     1  UNL1        0.1031
     13 C         141.6361  143.8017  164.1760 C.3     1  UNL1        0.0255
     14 C         142.6588  144.8851  164.0026 C.3     1  UNL1        0.0191
     15 C         144.0263  144.7280  164.5988 C.3     1  UNL1        0.0687
     16 N         144.3710  143.4874  165.3683 N.3     1  UNL1       -0.2959
     17 C         143.3483  142.4040  165.5416 C.3     1  UNL1        0.0914
     18 H         144.6435  143.7877  166.3042 H       1  UNL1        0.1233
     19 N         140.5974  140.4610  171.3669 N.am    1  UNL1       -0.3241
     20 C         139.9552  141.3616  170.3538 C.2     1  UNL1        0.2606
     21 O         139.5066  142.7369  170.7504 O.2     1  UNL1       -0.2687
     22 H         140.7245  140.7725  172.2921 H       1  UNL1        0.1453
     23 H         140.8919  139.5584  171.1066 H       1  UNL1        0.1453
     24 C         140.7073  140.7268  162.5656 C.1     1  UNL1       -0.0437
     25 C         141.0419  140.8191  161.1064 C.1     1  UNL1       -0.0560
     26 C         141.3765  140.9114  159.6471 C.3     1  UNL1        0.1786
     27 C         142.5703  140.2995  158.9759 C.3     1  UNL1        0.0457
     28 C         142.5077  140.6418  157.5168 C.3     1  UNL1        0.0357
     29 C         141.2753  141.4651  157.2863 C.3     1  UNL1        0.1435
     30 O         140.5762  141.6318  158.6029 O.3     1  UNL1       -0.3434
@<TRIPOS>BOND
     1    19    20   am
     2    20    21    2
     3    20     1    1
     4     1     2   ar
     5     2     3   ar
     6     3     4    1
     7     3     5   ar
     8     5     6   ar
     9     6     7    1
    10     6     8   ar
    11     8    24    1
    12    24    25    3
    13    25    26    1
    14    26    27    1
    15    27    28    1
    16    28    29    1
    17    29    30    1
    18     8     9   ar
    19    12     9    1
    20    12    13    1
    21    13    14    1
    22    14    15    1
    23    15    16    1
    24    16    17    1
    25     9    10   ar
    26    10    11   ar
    27    11     1   ar
    28    10     5   ar
    29    30    26    1
    30    17    12    1
    31    19    22    1
    32    19    23    1
    33    16    18    1
@<TRIPOS>MOLECULE
*****
 30 33 0 0 0
SMALL
GASTEIGER

@<TRIPOS>ATOM
      1 C         140.2650  142.0321  169.1580 C.ar    1  UNL1        0.1366
      2 C         139.3646  140.8329  169.1906 C.ar    1  UNL1        0.0353
      3 C         139.0582  140.0905  167.9237 C.ar    1  UNL1        0.0631
      4 CL        138.1577  138.8912  167.9563 Cl      1  UNL1       -0.0821
      5 C         139.6522  140.5472  166.6243 C.ar    1  UNL1        0.0574
      6 C         139.5319  140.0198  165.2253 C.ar    1  UNL1        0.0850
      7 CL        138.7268  138.8284  164.7984 Cl      1  UNL1       -0.0799
      8 C         140.3580  140.8931  164.3280 C.ar    1  UNL1        0.1144
      9 N         140.9888  141.9602  165.1726 N.ar    1  UNL1       -0.3061
     10 C         140.5526  141.7464  166.5918 C.ar    1  UNL1        0.1460
     11 N         140.8590  142.4889  167.8586 N.ar    1  UNL1       -0.2236
     12 C         141.8965  143.0498  164.6838 C.3     1  UNL1        0.1031
     13 C         143.3708  142.9735  164.9498 C.3     1  UNL1        0.0255
     14 C         144.2784  144.0631  164.4610 C.3     1  UNL1        0.0191
     15 C         143.7118  145.2290  163.7062 C.3     1  UNL1        0.0687
     16 N         142.2375  145.3053  163.4402 N.3     1  UNL1       -0.2959
     17 C         141.3299  144.2157  163.9290 C.3     1  UNL1        0.0914
     18 H         142.1230  145.3518  162.4277 H       1  UNL1        0.1233
     19 N         140.8174  144.2537  170.3866 N.am    1  UNL1       -0.3241
     20 C         140.5714  142.7745  170.4249 C.2     1  UNL1        0.2606
     21 O         140.6318  142.0378  171.7301 O.2     1  UNL1       -0.2687
     22 H         141.0185  144.7410  171.2180 H       1  UNL1        0.1453
     23 H         140.7777  144.7373  169.5299 H       1  UNL1        0.1453
     24 C         140.5240  140.7282  162.8464 C.1     1  UNL1       -0.0437
     25 C         140.6901  140.5633  161.3648 C.1     1  UNL1       -0.0560
     26 C         140.8562  140.3984  159.8832 C.3     1  UNL1        0.1786
     27 C         141.0516  139.1005  159.1570 C.3     1  UNL1        0.0457
     28 C         141.1722  139.4024  157.6926 C.3     1  UNL1        0.0357
     29 C         141.0513  140.8867  157.5138 C.3     1  UNL1        0.1435
     30 O         140.8560  141.5022  158.8677 O.3     1  UNL1       -0.3434
@<TRIPOS>BOND
     1    19    20   am
     2    20    21    2
     3    20     1    1
     4     1     2   ar
     5     2     3   ar
     6     3     4    1
     7     3     5   ar
     8     5     6   ar
     9     6     7    1
    10     6     8   ar
    11     8    24    1
    12    24    25    3
    13    25    26    1
    14    26    27    1
    15    27    28    1
    16    28    29    1
    17    29    30    1
    18     8     9   ar
    19    12     9    1
    20    12    13    1
    21    13    14    1
    22    14    15    1
    23    15    16    1
    24    16    17    1
    25     9    10   ar
    26    10    11   ar
    27    11     1   ar
    28    10     5   ar
    29    30    26    1
    30    17    12    1
    31    19    22    1
    32    19    23    1
    33    16    18    1
