@<TRIPOS>MOLECULE
*****
 44 48 0 0 0
SMALL
GASTEIGER

@<TRIPOS>ATOM
      1 C         137.1149  141.7005  156.6645 C.2     1  UNL1        0.2458
      2 O         137.0243  140.6340  157.7153 O.2     1  UNL1       -0.2730
      3 N         138.1405  142.7883  156.7863 N.am    1  UNL1       -0.2767
      4 C         138.3489  143.9159  155.8193 C.3     1  UNL1        0.0949
      5 C         139.4749  144.7640  156.3320 C.3     1  UNL1        0.0390
      6 C         139.9624  144.1605  157.6158 C.3     1  UNL1        0.0758
      7 C         139.1377  142.9395  157.8966 C.3     1  UNL1        0.1091
      8 N         141.0787  144.6858  158.4690 N.3     1  UNL1       -0.2982
      9 H         141.2417  145.6502  158.1796 H       1  UNL1        0.1232
     10 C         140.9386  144.6996  159.9624 C.3     1  UNL1        0.0542
     11 C         140.1672  145.7973  160.6332 C.3     1  UNL1        0.0185
     12 C         140.0271  145.8110  162.1265 C.3     1  UNL1        0.0340
     13 C         140.6584  144.7271  162.9491 C.3     1  UNL1        0.1231
     14 O         140.0305  145.5473  164.0368 O.3     1  UNL1       -0.3812
     15 C         141.4298  143.6295  162.2783 C.3     1  UNL1        0.0340
     16 C         141.5699  143.6157  160.7849 C.3     1  UNL1        0.0185
     17 H         139.5718  146.3070  163.6450 H       1  UNL1        0.2107
     18 C         141.0717  143.9282  164.1494 C.ar    1  UNL1        0.0830
     19 C         140.0600  143.5725  165.1983 C.ar    1  UNL1        0.0171
     20 C         140.4734  142.7734  166.3986 C.ar    1  UNL1        0.0028
     21 C         141.8983  142.3301  166.5500 C.ar    1  UNL1        0.0193
     22 C         142.9100  142.6858  165.5012 C.ar    1  UNL1        0.0985
     23 N         142.4967  143.4848  164.3009 N.ar    1  UNL1       -0.2459
     24 C         142.3116  141.5311  167.7504 C.ar    1  UNL1        0.0046
     25 C         142.8223  142.2287  168.9762 C.ar    1  UNL1        0.0207
     26 C         143.2356  141.4296  170.1765 C.ar    1  UNL1        0.0989
     27 N         143.1381  139.9330  170.1510 N.ar    1  UNL1       -0.2423
     28 C         142.6274  139.2354  168.9252 C.ar    1  UNL1        0.0989
     29 C         142.2142  140.0345  167.7249 C.ar    1  UNL1        0.0207
     30 C         136.1799  141.6792  155.4918 C.3     1  UNL1        0.1761
     31 O         134.7223  139.0633  155.6727 O.2     1  UNL1       -0.2701
     32 C         133.9680  140.3530  155.8057 C.2     1  UNL1        0.2462
     33 N         134.6967  141.6608  155.7152 N.am    1  UNL1       -0.2931
     34 H         134.2016  142.5073  155.8024 H       1  UNL1        0.1502
     35 C         132.4848  140.3347  156.0291 C.ar    1  UNL1        0.0533
     36 C         131.6233  141.4082  155.4329 C.ar    1  UNL1        0.0045
     37 C         130.1401  141.3900  155.6563 C.ar    1  UNL1        0.0001
     38 C         129.5184  140.2983  156.4759 C.ar    1  UNL1        0.0039
     39 C         130.3800  139.2248  157.0721 C.ar    1  UNL1        0.0716
     40 C         131.8632  139.2430  156.8487 C.ar    1  UNL1        0.0084
     41 C         129.7583  138.1331  157.8917 C.3     1  UNL1        0.4186
     42 F         129.1367  137.0414  158.7114 F       1  UNL1       -0.1659
     43 F         129.8978  137.1865  156.7366 F       1  UNL1       -0.1659
     44 F         129.6188  139.0798  159.0468 F       1  UNL1       -0.1659
@<TRIPOS>BOND
     1    31    32    2
     2    32    33   am
     3    33    30    1
     4    30     1    1
     5     1     2    2
     6     1     3   am
     7     3     4    1
     8     4     5    1
     9     5     6    1
    10     6     8    1
    11    10     8    1
    12    10    11    1
    13    11    12    1
    14    12    13    1
    15    13    14    1
    16    13    18    1
    17    18    19   ar
    18    19    20   ar
    19    20    21   ar
    20    21    24    1
    21    24    25   ar
    22    25    26   ar
    23    26    27   ar
    24    27    28   ar
    25    28    29   ar
    26    21    22   ar
    27    22    23   ar
    28    13    15    1
    29    15    16    1
    30     6     7    1
    31    32    35    1
    32    35    36   ar
    33    36    37   ar
    34    37    38   ar
    35    38    39   ar
    36    39    41    1
    37    41    42    1
    38    41    43    1
    39    41    44    1
    40    39    40   ar
    41     7     3    1
    42    40    35   ar
    43    16    10    1
    44    23    18   ar
    45    29    24   ar
    46    33    34    1
    47     8     9    1
    48    14    17    1
@<TRIPOS>MOLECULE
*****
 44 48 0 0 0
SMALL
GASTEIGER

@<TRIPOS>ATOM
      1 C         138.9069  144.1047  156.1156 C.2     1  UNL1        0.2458
      2 O         137.5917  144.5002  155.5123 O.2     1  UNL1       -0.2730
      3 N         138.9645  143.0043  157.1334 N.am    1  UNL1       -0.2767
      4 C         140.2001  142.5020  157.8198 C.3     1  UNL1        0.0949
      5 C         139.7959  141.4003  158.7540 C.3     1  UNL1        0.0390
      6 C         138.3106  141.2217  158.6450 C.3     1  UNL1        0.0758
      7 C         137.7968  142.2130  157.6434 C.3     1  UNL1        0.1091
      8 N         137.4841  140.2265  159.4043 N.3     1  UNL1       -0.2982
      9 H         137.4065  139.3976  158.8151 H       1  UNL1        0.1232
     10 C         137.9317  139.7561  160.7566 C.3     1  UNL1        0.0542
     11 C         138.1997  138.2994  160.9931 C.3     1  UNL1        0.0185
     12 C         138.6472  137.8291  162.3454 C.3     1  UNL1        0.0340
     13 C         138.8267  138.8155  163.4610 C.3     1  UNL1        0.1231
     14 O         139.2024  137.5485  164.1706 O.3     1  UNL1       -0.3812
     15 C         138.5586  140.2723  163.2245 C.3     1  UNL1        0.0340
     16 C         138.1111  140.7426  161.8723 C.3     1  UNL1        0.0185
     17 H         139.1319  136.8009  163.5566 H       1  UNL1        0.2107
     18 C         139.1366  139.3619  164.8232 C.ar    1  UNL1        0.0830
     19 C         138.3304  138.9219  166.0091 C.ar    1  UNL1        0.0171
     20 C         138.6405  139.4683  167.3712 C.ar    1  UNL1        0.0028
     21 C         139.7567  140.4547  167.5474 C.ar    1  UNL1        0.0193
     22 C         140.5629  140.8947  166.3614 C.ar    1  UNL1        0.0985
     23 N         140.2529  140.3483  164.9994 N.ar    1  UNL1       -0.2459
     24 C         140.0667  141.0011  168.9096 C.ar    1  UNL1        0.0046
     25 C         140.0300  142.4812  169.1501 C.ar    1  UNL1        0.0207
     26 C         140.3400  143.0275  170.5123 C.ar    1  UNL1        0.0989
     27 N         140.6866  142.0937  171.6338 N.ar    1  UNL1       -0.2423
     28 C         140.7233  140.6136  171.3932 C.ar    1  UNL1        0.0989
     29 C         140.4133  140.0673  170.0310 C.ar    1  UNL1        0.0207
     30 C         140.1644  144.8095  155.7011 C.3     1  UNL1        0.1761
     31 O         139.2687  147.4015  156.9175 O.2     1  UNL1       -0.2701
     32 C         139.6394  147.3430  155.4652 C.2     1  UNL1        0.2462
     33 N         140.0872  146.0471  154.8570 N.am    1  UNL1       -0.2931
     34 H         140.3304  146.0088  153.9038 H       1  UNL1        0.1502
     35 C         139.5622  148.5806  154.6211 C.ar    1  UNL1        0.0533
     36 C         139.9917  148.5366  153.1846 C.ar    1  UNL1        0.0045
     37 C         139.9146  149.7742  152.3404 C.ar    1  UNL1        0.0001
     38 C         139.4079  151.0557  152.9328 C.ar    1  UNL1        0.0039
     39 C         138.9783  151.0997  154.3693 C.ar    1  UNL1        0.0716
     40 C         139.0555  149.8621  155.2134 C.ar    1  UNL1        0.0084
     41 C         138.4716  152.3812  154.9616 C.3     1  UNL1        0.4186
     42 F         137.9649  153.6628  155.5541 F       1  UNL1       -0.1659
     43 F         138.0030  152.8222  153.6067 F       1  UNL1       -0.1659
     44 F         138.9402  151.9402  156.3166 F       1  UNL1       -0.1659
@<TRIPOS>BOND
     1    31    32    2
     2    32    33   am
     3    33    30    1
     4    30     1    1
     5     1     2    2
     6     1     3   am
     7     3     4    1
     8     4     5    1
     9     5     6    1
    10     6     8    1
    11    10     8    1
    12    10    11    1
    13    11    12    1
    14    12    13    1
    15    13    14    1
    16    13    18    1
    17    18    19   ar
    18    19    20   ar
    19    20    21   ar
    20    21    24    1
    21    24    25   ar
    22    25    26   ar
    23    26    27   ar
    24    27    28   ar
    25    28    29   ar
    26    21    22   ar
    27    22    23   ar
    28    13    15    1
    29    15    16    1
    30     6     7    1
    31    32    35    1
    32    35    36   ar
    33    36    37   ar
    34    37    38   ar
    35    38    39   ar
    36    39    41    1
    37    41    42    1
    38    41    43    1
    39    41    44    1
    40    39    40   ar
    41     7     3    1
    42    40    35   ar
    43    16    10    1
    44    23    18   ar
    45    29    24   ar
    46    33    34    1
    47     8     9    1
    48    14    17    1
@<TRIPOS>MOLECULE
*****
 44 48 0 0 0
SMALL
GASTEIGER

@<TRIPOS>ATOM
      1 C         137.1568  141.6179  156.6562 C.2     1  UNL1        0.2458
      2 O         137.1112  140.5335  157.6915 O.2     1  UNL1       -0.2730
      3 N         138.1523  142.7329  156.7812 N.am    1  UNL1       -0.2767
      4 C         138.3151  143.8805  155.8291 C.3     1  UNL1        0.0949
      5 C         139.4233  144.7529  156.3398 C.3     1  UNL1        0.0390
      6 C         139.9454  144.1445  157.6076 C.3     1  UNL1        0.0758
      7 C         139.1599  142.8961  157.8804 C.3     1  UNL1        0.1091
      8 N         141.0577  144.6889  158.4540 N.3     1  UNL1       -0.2982
      9 H         141.2050  145.6547  158.1609 H       1  UNL1        0.1232
     10 C         140.9243  144.7053  159.9480 C.3     1  UNL1        0.0542
     11 C         140.1535  145.8025  160.6202 C.3     1  UNL1        0.0185
     12 C         140.0202  145.8188  162.1141 C.3     1  UNL1        0.0340
     13 C         140.6576  144.7379  162.9359 C.3     1  UNL1        0.1231
     14 O         140.0328  145.5588  164.0248 O.3     1  UNL1       -0.3812
     15 C         141.4284  143.6406  162.2637 C.3     1  UNL1        0.0340
     16 C         141.5617  143.6243  160.7697 C.3     1  UNL1        0.0185
     17 H         139.5707  146.3167  163.6337 H       1  UNL1        0.2107
     18 C         141.0780  143.9421  164.1358 C.ar    1  UNL1        0.0830
     19 C         142.4964  143.4714  164.2643 C.ar    1  UNL1        0.0171
     20 C         142.9167  142.6755  165.4644 C.ar    1  UNL1        0.0028
     21 C         141.9186  142.3505  166.5359 C.ar    1  UNL1        0.0193
     22 C         140.5002  142.8213  166.4074 C.ar    1  UNL1        0.0985
     23 N         140.0799  143.6170  165.2074 N.ar    1  UNL1       -0.2459
     24 C         142.3390  141.5547  167.7359 C.ar    1  UNL1        0.0046
     25 C         142.1364  140.0686  167.7589 C.ar    1  UNL1        0.0207
     26 C         142.5569  139.2729  168.9589 C.ar    1  UNL1        0.0989
     27 N         143.1798  139.9632  170.1359 N.ar    1  UNL1       -0.2423
     28 C         143.3823  141.4493  170.1130 C.ar    1  UNL1        0.0989
     29 C         142.9619  142.2450  168.9129 C.ar    1  UNL1        0.0207
     30 C         136.2068  141.5873  155.4957 C.3     1  UNL1        0.1761
     31 O         134.7473  138.9742  155.7007 O.2     1  UNL1       -0.2701
     32 C         133.9969  140.2655  155.8407 C.2     1  UNL1        0.2462
     33 N         134.7266  141.5719  155.7382 N.am    1  UNL1       -0.2931
     34 H         134.2341  142.4194  155.8301 H       1  UNL1        0.1502
     35 C         132.5167  140.2502  156.0832 C.ar    1  UNL1        0.0533
     36 C         131.9038  139.1611  156.9128 C.ar    1  UNL1        0.0045
     37 C         130.4236  139.1459  157.1553 C.ar    1  UNL1        0.0001
     38 C         129.5563  140.2197  156.5683 C.ar    1  UNL1        0.0039
     39 C         130.1692  141.3088  155.7387 C.ar    1  UNL1        0.0716
     40 C         131.6494  141.3241  155.4962 C.ar    1  UNL1        0.0084
     41 C         129.3019  142.3827  155.1517 C.3     1  UNL1        0.4186
     42 F         128.4346  143.4566  154.5646 F       1  UNL1       -0.1659
     43 F         130.3789  143.3941  155.4108 F       1  UNL1       -0.1659
     44 F         128.2250  141.3713  154.8926 F       1  UNL1       -0.1659
@<TRIPOS>BOND
     1    31    32    2
     2    32    33   am
     3    33    30    1
     4    30     1    1
     5     1     2    2
     6     1     3   am
     7     3     4    1
     8     4     5    1
     9     5     6    1
    10     6     8    1
    11    10     8    1
    12    10    11    1
    13    11    12    1
    14    12    13    1
    15    13    14    1
    16    13    18    1
    17    18    19   ar
    18    19    20   ar
    19    20    21   ar
    20    21    24    1
    21    24    25   ar
    22    25    26   ar
    23    26    27   ar
    24    27    28   ar
    25    28    29   ar
    26    21    22   ar
    27    22    23   ar
    28    13    15    1
    29    15    16    1
    30     6     7    1
    31    32    35    1
    32    35    36   ar
    33    36    37   ar
    34    37    38   ar
    35    38    39   ar
    36    39    41    1
    37    41    42    1
    38    41    43    1
    39    41    44    1
    40    39    40   ar
    41     7     3    1
    42    40    35   ar
    43    16    10    1
    44    23    18   ar
    45    29    24   ar
    46    33    34    1
    47     8     9    1
    48    14    17    1
@<TRIPOS>MOLECULE
*****
 44 48 0 0 0
SMALL
GASTEIGER

@<TRIPOS>ATOM
      1 C         137.9667  141.5089  157.4228 C.2     1  UNL1        0.2458
      2 O         137.9239  140.4341  158.4682 O.2     1  UNL1       -0.2730
      3 N         138.9389  142.6438  157.5532 N.am    1  UNL1       -0.2767
      4 C         139.0962  143.7849  156.5923 C.3     1  UNL1        0.0949
      5 C         140.1790  144.6830  157.1127 C.3     1  UNL1        0.0390
      6 C         140.6909  144.0971  158.3952 C.3     1  UNL1        0.0758
      7 C         139.9245  142.8368  158.6674 C.3     1  UNL1        0.1091
      8 N         141.7783  144.6708  159.2545 N.3     1  UNL1       -0.2982
      9 H         141.4813  145.6106  159.5169 H       1  UNL1        0.1232
     10 C         142.1795  143.9742  160.5210 C.3     1  UNL1        0.0542
     11 C         143.3387  143.0222  160.5184 C.3     1  UNL1        0.0185
     12 C         143.7399  142.3257  161.7849 C.3     1  UNL1        0.0340
     13 C         142.9819  142.5811  163.0538 C.3     1  UNL1        0.1231
     14 O         144.0008  141.5994  163.5520 O.3     1  UNL1       -0.3812
     15 C         141.8227  143.5330  163.0563 C.3     1  UNL1        0.0340
     16 C         141.4215  144.2296  161.7899 C.3     1  UNL1        0.0185
     17 H         144.5801  141.3353  162.8203 H       1  UNL1        0.2107
     18 C         142.5779  142.4955  164.4958 C.ar    1  UNL1        0.0830
     19 C         143.6267  142.4464  165.5670 C.ar    1  UNL1        0.0171
     20 C         143.2225  142.3608  167.0091 C.ar    1  UNL1        0.0028
     21 C         141.7695  142.3244  167.3798 C.ar    1  UNL1        0.0193
     22 C         140.7207  142.3735  166.3085 C.ar    1  UNL1        0.0985
     23 N         141.1248  142.4591  164.8666 N.ar    1  UNL1       -0.2459
     24 C         141.3653  142.2388  168.8218 C.ar    1  UNL1        0.0046
     25 C         140.2298  143.0748  169.3334 C.ar    1  UNL1        0.0207
     26 C         139.8257  142.9891  170.7754 C.ar    1  UNL1        0.0989
     27 N         140.5572  142.0676  171.7058 N.ar    1  UNL1       -0.2423
     28 C         141.6928  141.2316  171.1943 C.ar    1  UNL1        0.0989
     29 C         142.0968  141.3173  169.7522 C.ar    1  UNL1        0.0207
     30 C         137.0373  141.4489  156.2469 C.3     1  UNL1        0.1761
     31 O         135.2816  139.6314  154.6301 O.2     1  UNL1       -0.2701
     32 C         134.6752  140.5437  155.6547 C.2     1  UNL1        0.2462
     33 N         135.5530  141.4525  156.4631 N.am    1  UNL1       -0.2931
     34 H         135.1549  142.0513  157.1356 H       1  UNL1        0.1502
     35 C         133.1908  140.5473  155.8709 C.ar    1  UNL1        0.0533
     36 C         132.3211  141.4854  155.0877 C.ar    1  UNL1        0.0045
     37 C         130.8367  141.4890  155.3040 C.ar    1  UNL1        0.0001
     38 C         130.2221  140.5545  156.3034 C.ar    1  UNL1        0.0039
     39 C         131.0919  139.6164  157.0866 C.ar    1  UNL1        0.0716
     40 C         132.5762  139.6128  156.8704 C.ar    1  UNL1        0.0084
     41 C         130.4773  138.6818  158.0861 C.3     1  UNL1        0.4186
     42 F         129.8626  137.7473  159.0855 F       1  UNL1       -0.1659
     43 F         131.8456  138.2622  158.5351 F       1  UNL1       -0.1659
     44 F         129.1090  139.1015  157.6370 F       1  UNL1       -0.1659
@<TRIPOS>BOND
     1    31    32    2
     2    32    33   am
     3    33    30    1
     4    30     1    1
     5     1     2    2
     6     1     3   am
     7     3     4    1
     8     4     5    1
     9     5     6    1
    10     6     8    1
    11    10     8    1
    12    10    11    1
    13    11    12    1
    14    12    13    1
    15    13    14    1
    16    13    18    1
    17    18    19   ar
    18    19    20   ar
    19    20    21   ar
    20    21    24    1
    21    24    25   ar
    22    25    26   ar
    23    26    27   ar
    24    27    28   ar
    25    28    29   ar
    26    21    22   ar
    27    22    23   ar
    28    13    15    1
    29    15    16    1
    30     6     7    1
    31    32    35    1
    32    35    36   ar
    33    36    37   ar
    34    37    38   ar
    35    38    39   ar
    36    39    41    1
    37    41    42    1
    38    41    43    1
    39    41    44    1
    40    39    40   ar
    41     7     3    1
    42    40    35   ar
    43    16    10    1
    44    23    18   ar
    45    29    24   ar
    46    33    34    1
    47     8     9    1
    48    14    17    1
@<TRIPOS>MOLECULE
*****
 44 48 0 0 0
SMALL
GASTEIGER

@<TRIPOS>ATOM
      1 C         142.1258  136.0609  155.5638 C.2     1  UNL1        0.2458
      2 O         141.0306  135.6822  154.6113 O.2     1  UNL1       -0.2730
      3 N         141.8274  136.9497  156.7347 N.am    1  UNL1       -0.2767
      4 C         142.8146  137.4107  157.7658 C.3     1  UNL1        0.0949
      5 C         142.0868  138.2795  158.7484 C.3     1  UNL1        0.0390
      6 C         140.6499  138.3554  158.3246 C.3     1  UNL1        0.0758
      7 C         140.4896  137.5336  157.0801 C.3     1  UNL1        0.1091
      8 N         139.5639  139.1191  159.0227 N.3     1  UNL1       -0.2982
      9 H         138.6771  138.7501  158.6796 H       1  UNL1        0.1232
     10 C         139.4856  139.1115  160.5207 C.3     1  UNL1        0.0542
     11 C         138.6443  138.0870  161.2225 C.3     1  UNL1        0.0185
     12 C         138.5660  138.0795  162.7204 C.3     1  UNL1        0.0340
     13 C         139.3290  139.0964  163.5165 C.3     1  UNL1        0.1231
     14 O         138.6736  138.3330  164.6290 O.3     1  UNL1       -0.3812
     15 C         140.1703  140.1209  162.8147 C.3     1  UNL1        0.0340
     16 C         140.2486  140.1284  161.3168 C.3     1  UNL1        0.0185
     17 H         138.1304  137.6209  164.2563 H       1  UNL1        0.2107
     18 C         139.8643  139.8481  164.6990 C.ar    1  UNL1        0.0830
     19 C         139.1883  141.1065  165.1565 C.ar    1  UNL1        0.0171
     20 C         139.7237  141.8582  166.3391 C.ar    1  UNL1        0.0028
     21 C         140.9352  141.3514  167.0640 C.ar    1  UNL1        0.0193
     22 C         141.6112  140.0930  166.6064 C.ar    1  UNL1        0.0985
     23 N         141.0758  139.3414  165.4240 N.ar    1  UNL1       -0.2459
     24 C         141.4706  142.1032  168.2466 C.ar    1  UNL1        0.0046
     25 C         140.5985  143.0890  168.9660 C.ar    1  UNL1        0.0207
     26 C         141.1340  143.8407  170.1485 C.ar    1  UNL1        0.0989
     27 N         142.5414  143.6065  170.6115 N.ar    1  UNL1       -0.2423
     28 C         143.4134  142.6206  169.8921 C.ar    1  UNL1        0.0989
     29 C         142.8779  141.8689  168.7095 C.ar    1  UNL1        0.0207
     30 C         143.5194  135.5507  155.3454 C.3     1  UNL1        0.1761
     31 O         143.7841  134.0787  157.9460 O.2     1  UNL1       -0.2701
     32 C         143.9191  133.3388  156.6482 C.2     1  UNL1        0.2462
     33 N         143.7868  134.0747  155.3480 N.am    1  UNL1       -0.2931
     34 H         143.8755  133.5890  154.4962 H       1  UNL1        0.1502
     35 C         144.1866  131.8628  156.6507 C.ar    1  UNL1        0.0533
     36 C         144.4704  131.1498  155.3619 C.ar    1  UNL1        0.0045
     37 C         144.7379  129.6738  155.3644 C.ar    1  UNL1        0.0001
     38 C         144.7215  128.9108  156.6558 C.ar    1  UNL1        0.0039
     39 C         144.4376  129.6238  157.9446 C.ar    1  UNL1        0.0716
     40 C         144.1702  131.0998  157.9421 C.ar    1  UNL1        0.0084
     41 C         144.4212  128.8608  159.2359 C.3     1  UNL1        0.4186
     42 F         144.4048  128.0978  160.5273 F       1  UNL1       -0.1659
     43 F         145.9193  128.7894  159.2127 F       1  UNL1       -0.1659
     44 F         142.9231  128.9323  159.2591 F       1  UNL1       -0.1659
@<TRIPOS>BOND
     1    31    32    2
     2    32    33   am
     3    33    30    1
     4    30     1    1
     5     1     2    2
     6     1     3   am
     7     3     4    1
     8     4     5    1
     9     5     6    1
    10     6     8    1
    11    10     8    1
    12    10    11    1
    13    11    12    1
    14    12    13    1
    15    13    14    1
    16    13    18    1
    17    18    19   ar
    18    19    20   ar
    19    20    21   ar
    20    21    24    1
    21    24    25   ar
    22    25    26   ar
    23    26    27   ar
    24    27    28   ar
    25    28    29   ar
    26    21    22   ar
    27    22    23   ar
    28    13    15    1
    29    15    16    1
    30     6     7    1
    31    32    35    1
    32    35    36   ar
    33    36    37   ar
    34    37    38   ar
    35    38    39   ar
    36    39    41    1
    37    41    42    1
    38    41    43    1
    39    41    44    1
    40    39    40   ar
    41     7     3    1
    42    40    35   ar
    43    16    10    1
    44    23    18   ar
    45    29    24   ar
    46    33    34    1
    47     8     9    1
    48    14    17    1
@<TRIPOS>MOLECULE
*****
 44 48 0 0 0
SMALL
GASTEIGER

@<TRIPOS>ATOM
      1 C         140.5869  145.0215  161.9134 C.2     1  UNL1        0.2458
      2 O         139.2897  145.6132  161.4473 O.2     1  UNL1       -0.2730
      3 N         141.3948  144.1616  160.9872 N.am    1  UNL1       -0.2767
      4 C         142.7041  143.5051  161.3108 C.3     1  UNL1        0.0949
      5 C         143.1537  142.7450  160.0983 C.3     1  UNL1        0.0390
      6 C         142.1222  142.9317  159.0254 C.3     1  UNL1        0.0758
      7 C         141.0352  143.8072  159.5747 C.3     1  UNL1        0.1091
      8 N         142.1695  142.3458  157.6454 N.3     1  UNL1       -0.2982
      9 H         143.1335  142.4296  157.3228 H       1  UNL1        0.1232
     10 C         141.7603  140.9201  157.4214 C.3     1  UNL1        0.0542
     11 C         140.3400  140.5011  157.6604 C.3     1  UNL1        0.0185
     12 C         139.9309  139.0755  157.4365 C.3     1  UNL1        0.0340
     13 C         140.9420  138.0689  156.9735 C.3     1  UNL1        0.1231
     14 O         139.7262  137.1949  157.0625 O.3     1  UNL1       -0.3812
     15 C         142.3623  138.4879  156.7345 C.3     1  UNL1        0.0340
     16 C         142.7714  139.9135  156.9584 C.3     1  UNL1        0.0185
     17 H         138.9689  137.7236  157.3587 H       1  UNL1        0.2107
     18 C         141.5309  136.7587  156.5414 C.ar    1  UNL1        0.0830
     19 C         142.7788  136.2449  157.1962 C.ar    1  UNL1        0.0171
     20 C         143.3676  134.9347  156.7640 C.ar    1  UNL1        0.0028
     21 C         142.7084  134.1383  155.6771 C.ar    1  UNL1        0.0193
     22 C         141.4605  134.6522  155.0224 C.ar    1  UNL1        0.0985
     23 N         140.8717  135.9623  155.4545 N.ar    1  UNL1       -0.2459
     24 C         143.2972  132.8281  155.2450 C.ar    1  UNL1        0.0046
     25 C         144.3246  132.1488  156.1012 C.ar    1  UNL1        0.0207
     26 C         144.9133  130.8386  155.6691 C.ar    1  UNL1        0.0989
     27 N         144.4748  130.2078  154.3808 N.ar    1  UNL1       -0.2423
     28 C         143.4475  130.8871  153.5245 C.ar    1  UNL1        0.0989
     29 C         142.8587  132.1973  153.9567 C.ar    1  UNL1        0.0207
     30 C         141.0762  145.2898  163.3058 C.3     1  UNL1        0.1761
     31 O         138.5146  144.3075  164.5196 O.2     1  UNL1       -0.2701
     32 C         139.8211  143.6921  164.9249 C.2     1  UNL1        0.2462
     33 N         141.1018  144.1832  164.3181 N.am    1  UNL1       -0.2931
     34 H         141.9593  143.7792  164.5842 H       1  UNL1        0.1502
     35 C         139.8468  142.5854  165.9373 C.ar    1  UNL1        0.0533
     36 C         140.4656  142.8154  167.2842 C.ar    1  UNL1        0.0045
     37 C         140.4913  141.7088  168.2965 C.ar    1  UNL1        0.0001
     38 C         139.8983  140.3722  167.9619 C.ar    1  UNL1        0.0039
     39 C         139.2795  140.1423  166.6150 C.ar    1  UNL1        0.0716
     40 C         139.2538  141.2489  165.6026 C.ar    1  UNL1        0.0084
     41 C         138.6865  138.8058  166.2803 C.3     1  UNL1        0.4186
     42 F         138.0935  137.4692  165.9457 F       1  UNL1       -0.1659
     43 F         139.5086  138.7549  165.0267 F       1  UNL1       -0.1659
     44 F         137.8644  138.8567  167.5339 F       1  UNL1       -0.1659
@<TRIPOS>BOND
     1    31    32    2
     2    32    33   am
     3    33    30    1
     4    30     1    1
     5     1     2    2
     6     1     3   am
     7     3     4    1
     8     4     5    1
     9     5     6    1
    10     6     8    1
    11    10     8    1
    12    10    11    1
    13    11    12    1
    14    12    13    1
    15    13    14    1
    16    13    18    1
    17    18    19   ar
    18    19    20   ar
    19    20    21   ar
    20    21    24    1
    21    24    25   ar
    22    25    26   ar
    23    26    27   ar
    24    27    28   ar
    25    28    29   ar
    26    21    22   ar
    27    22    23   ar
    28    13    15    1
    29    15    16    1
    30     6     7    1
    31    32    35    1
    32    35    36   ar
    33    36    37   ar
    34    37    38   ar
    35    38    39   ar
    36    39    41    1
    37    41    42    1
    38    41    43    1
    39    41    44    1
    40    39    40   ar
    41     7     3    1
    42    40    35   ar
    43    16    10    1
    44    23    18   ar
    45    29    24   ar
    46    33    34    1
    47     8     9    1
    48    14    17    1
@<TRIPOS>MOLECULE
*****
 44 48 0 0 0
SMALL
GASTEIGER

@<TRIPOS>ATOM
      1 C         138.1807  143.2380  162.5392 C.2     1  UNL1        0.2458
      2 O         137.5933  144.6178  162.5042 O.2     1  UNL1       -0.2730
      3 N         139.0142  142.7485  161.3922 N.am    1  UNL1       -0.2767
      4 C         139.6636  141.4004  161.2865 C.3     1  UNL1        0.0949
      5 C         140.3954  141.3398  159.9785 C.3     1  UNL1        0.0390
      6 C         140.1983  142.6504  159.2759 C.3     1  UNL1        0.0758
      7 C         139.3447  143.5209  160.1496 C.3     1  UNL1        0.1091
      8 N         140.7567  143.0246  157.9350 N.3     1  UNL1       -0.2982
      9 H         140.7249  142.1842  157.3578 H       1  UNL1        0.1232
     10 C         140.1186  144.1227  157.1367 C.3     1  UNL1        0.0542
     11 C         138.9341  143.8257  156.2658 C.3     1  UNL1        0.0185
     12 C         138.2960  144.9238  155.4676 C.3     1  UNL1        0.0340
     13 C         138.8426  146.3188  155.5403 C.3     1  UNL1        0.1231
     14 O         137.7114  146.5320  154.5786 O.3     1  UNL1       -0.3812
     15 C         140.0272  146.6157  156.4112 C.3     1  UNL1        0.0340
     16 C         140.6652  145.5177  157.2094 C.3     1  UNL1        0.0185
     17 H         137.2508  145.6914  154.4297 H       1  UNL1        0.2107
     18 C         138.9962  147.7878  155.2789 C.ar    1  UNL1        0.0830
     19 C         139.7115  148.2599  154.0479 C.ar    1  UNL1        0.0171
     20 C         139.8651  149.7290  153.7866 C.ar    1  UNL1        0.0028
     21 C         139.3034  150.7259  154.7564 C.ar    1  UNL1        0.0193
     22 C         138.5881  150.2538  155.9875 C.ar    1  UNL1        0.0985
     23 N         138.4346  148.7848  156.2487 N.ar    1  UNL1       -0.2459
     24 C         139.4570  152.1951  154.4951 C.ar    1  UNL1        0.0046
     25 C         140.6613  152.7041  153.7599 C.ar    1  UNL1        0.0207
     26 C         140.8149  154.1732  153.4986 C.ar    1  UNL1        0.0989
     27 N         139.7642  155.1331  153.9725 N.ar    1  UNL1       -0.2423
     28 C         138.5599  154.6240  154.7077 C.ar    1  UNL1        0.0989
     29 C         138.4063  153.1549  154.9690 C.ar    1  UNL1        0.0207
     30 C         137.9347  142.3479  163.7212 C.3     1  UNL1        0.1761
     31 O         139.0347  144.4852  165.5161 O.2     1  UNL1       -0.2701
     32 C         139.6048  143.0986  165.5643 C.2     1  UNL1        0.2462
     33 N         139.0548  142.0300  164.6669 N.am    1  UNL1       -0.2931
     34 H         139.4289  141.1199  164.6985 H       1  UNL1        0.1502
     35 C         140.7249  142.7806  166.5100 C.ar    1  UNL1        0.0533
     36 C         142.1156  142.5803  165.9850 C.ar    1  UNL1        0.0045
     37 C         143.2358  142.2623  166.9307 C.ar    1  UNL1        0.0001
     38 C         142.9651  142.1446  168.4013 C.ar    1  UNL1        0.0039
     39 C         141.5743  142.3448  168.9263 C.ar    1  UNL1        0.0716
     40 C         140.4542  142.6628  167.9806 C.ar    1  UNL1        0.0084
     41 C         141.3036  142.2271  170.3969 C.3     1  UNL1        0.4186
     42 F         141.0330  142.1093  171.8677 F       1  UNL1       -0.1659
     43 F         140.0834  143.0854  170.2411 F       1  UNL1       -0.1659
     44 F         142.5239  141.3687  170.5528 F       1  UNL1       -0.1659
@<TRIPOS>BOND
     1    31    32    2
     2    32    33   am
     3    33    30    1
     4    30     1    1
     5     1     2    2
     6     1     3   am
     7     3     4    1
     8     4     5    1
     9     5     6    1
    10     6     8    1
    11    10     8    1
    12    10    11    1
    13    11    12    1
    14    12    13    1
    15    13    14    1
    16    13    18    1
    17    18    19   ar
    18    19    20   ar
    19    20    21   ar
    20    21    24    1
    21    24    25   ar
    22    25    26   ar
    23    26    27   ar
    24    27    28   ar
    25    28    29   ar
    26    21    22   ar
    27    22    23   ar
    28    13    15    1
    29    15    16    1
    30     6     7    1
    31    32    35    1
    32    35    36   ar
    33    36    37   ar
    34    37    38   ar
    35    38    39   ar
    36    39    41    1
    37    41    42    1
    38    41    43    1
    39    41    44    1
    40    39    40   ar
    41     7     3    1
    42    40    35   ar
    43    16    10    1
    44    23    18   ar
    45    29    24   ar
    46    33    34    1
    47     8     9    1
    48    14    17    1
@<TRIPOS>MOLECULE
*****
 44 48 0 0 0
SMALL
GASTEIGER

@<TRIPOS>ATOM
      1 C         141.0388  145.2528  157.9020 C.2     1  UNL1        0.2458
      2 O         142.2760  146.0356  158.2284 O.2     1  UNL1       -0.2730
      3 N         141.0045  143.7718  158.1374 N.am    1  UNL1       -0.2767
      4 C         139.8445  142.8618  157.8609 C.3     1  UNL1        0.0949
      5 C         140.2472  141.4684  158.2433 C.3     1  UNL1        0.0390
      6 C         141.6560  141.5172  158.7561 C.3     1  UNL1        0.0758
      7 C         142.1240  142.9408  158.6907 C.3     1  UNL1        0.1091
      8 N         142.4563  140.3478  159.2480 N.3     1  UNL1       -0.2982
      9 H         143.3304  140.3472  158.7223 H       1  UNL1        0.1232
     10 C         142.8235  140.2473  160.6989 C.3     1  UNL1        0.0542
     11 C         144.1097  139.5900  161.1033 C.3     1  UNL1        0.0185
     12 C         144.4769  139.4896  162.5541 C.3     1  UNL1        0.0340
     13 C         143.5578  140.0464  163.6006 C.3     1  UNL1        0.1231
     14 O         144.6575  139.5189  164.4738 O.3     1  UNL1       -0.3812
     15 C         142.2715  140.7037  163.1963 C.3     1  UNL1        0.0340
     16 C         141.9044  140.8042  161.7454 C.3     1  UNL1        0.0185
     17 H         145.3453  139.1171  163.9202 H       1  UNL1        0.2107
     18 C         143.0207  140.4200  164.9504 C.ar    1  UNL1        0.0830
     19 C         143.3664  141.7491  165.5537 C.ar    1  UNL1        0.0171
     20 C         142.8293  142.1226  166.9036 C.ar    1  UNL1        0.0028
     21 C         141.9464  141.1670  167.6500 C.ar    1  UNL1        0.0193
     22 C         141.6006  139.8379  167.0467 C.ar    1  UNL1        0.0985
     23 N         142.1377  139.4644  165.6970 N.ar    1  UNL1       -0.2459
     24 C         141.4092  141.5406  168.9999 C.ar    1  UNL1        0.0046
     25 C         141.7547  140.7105  170.2005 C.ar    1  UNL1        0.0207
     26 C         141.2175  141.0842  171.5503 C.ar    1  UNL1        0.0989
     27 N         140.3349  142.2878  171.6994 N.ar    1  UNL1       -0.2423
     28 C         139.9894  143.1179  170.4987 C.ar    1  UNL1        0.0989
     29 C         140.5266  142.7442  169.1489 C.ar    1  UNL1        0.0207
     30 C         139.8360  145.9511  157.3402 C.3     1  UNL1        0.1761
     31 O         138.1583  146.5222  154.9196 O.2     1  UNL1       -0.2701
     32 C         139.1583  147.5342  155.3948 C.2     1  UNL1        0.2462
     33 N         139.9971  147.2486  156.6051 N.am    1  UNL1       -0.2931
     34 H         140.6535  147.9129  156.9170 H       1  UNL1        0.1502
     35 C         139.3195  148.8318  154.6598 C.ar    1  UNL1        0.0533
     36 C         139.9475  148.8492  153.2977 C.ar    1  UNL1        0.0045
     37 C         140.1087  150.1468  152.5626 C.ar    1  UNL1        0.0001
     38 C         139.6420  151.4270  153.1897 C.ar    1  UNL1        0.0039
     39 C         139.0140  151.4096  154.5518 C.ar    1  UNL1        0.0716
     40 C         138.8528  150.1120  155.2868 C.ar    1  UNL1        0.0084
     41 C         138.5472  152.6898  155.1788 C.3     1  UNL1        0.4186
     42 F         138.0804  153.9700  155.8059 F       1  UNL1       -0.1659
     43 F         138.1925  153.2245  153.8230 F       1  UNL1       -0.1659
     44 F         138.9019  152.1550  156.5346 F       1  UNL1       -0.1659
@<TRIPOS>BOND
     1    31    32    2
     2    32    33   am
     3    33    30    1
     4    30     1    1
     5     1     2    2
     6     1     3   am
     7     3     4    1
     8     4     5    1
     9     5     6    1
    10     6     8    1
    11    10     8    1
    12    10    11    1
    13    11    12    1
    14    12    13    1
    15    13    14    1
    16    13    18    1
    17    18    19   ar
    18    19    20   ar
    19    20    21   ar
    20    21    24    1
    21    24    25   ar
    22    25    26   ar
    23    26    27   ar
    24    27    28   ar
    25    28    29   ar
    26    21    22   ar
    27    22    23   ar
    28    13    15    1
    29    15    16    1
    30     6     7    1
    31    32    35    1
    32    35    36   ar
    33    36    37   ar
    34    37    38   ar
    35    38    39   ar
    36    39    41    1
    37    41    42    1
    38    41    43    1
    39    41    44    1
    40    39    40   ar
    41     7     3    1
    42    40    35   ar
    43    16    10    1
    44    23    18   ar
    45    29    24   ar
    46    33    34    1
    47     8     9    1
    48    14    17    1
@<TRIPOS>MOLECULE
*****
 44 48 0 0 0
SMALL
GASTEIGER

@<TRIPOS>ATOM
      1 C         137.9939  141.0578  162.4192 C.2     1  UNL1        0.2458
      2 O         137.7574  139.7111  163.0359 O.2     1  UNL1       -0.2730
      3 N         138.2211  141.1765  160.9413 N.am    1  UNL1       -0.2767
      4 C         138.4695  142.4489  160.1867 C.3     1  UNL1        0.0949
      5 C         138.6417  142.1023  158.7375 C.3     1  UNL1        0.0390
      6 C         138.4997  140.6157  158.5964 C.3     1  UNL1        0.0758
      7 C         138.2398  140.0435  159.9584 C.3     1  UNL1        0.1091
      8 N         138.6001  139.8379  157.3178 N.3     1  UNL1       -0.2982
      9 H         138.5096  140.5103  156.5562 H       1  UNL1        0.1232
     10 C         139.8251  139.0210  157.0310 C.3     1  UNL1        0.0542
     11 C         141.1710  139.6810  156.9774 C.3     1  UNL1        0.0185
     12 C         142.3959  138.8642  156.6906 C.3     1  UNL1        0.0340
     13 C         142.2749  137.3874  156.4574 C.3     1  UNL1        0.1231
     14 O         143.7577  137.5546  156.3043 O.3     1  UNL1       -0.3812
     15 C         140.9290  136.7274  156.5110 C.3     1  UNL1        0.0340
     16 C         139.7041  137.5442  156.7978 C.3     1  UNL1        0.0185
     17 H         143.9928  138.4870  156.4322 H       1  UNL1        0.2107
     18 C         142.6690  135.9687  156.1710 C.ar    1  UNL1        0.0830
     19 C         142.4332  135.3849  154.8096 C.ar    1  UNL1        0.0171
     20 C         142.8272  133.9661  154.5233 C.ar    1  UNL1        0.0028
     21 C         143.4571  133.1312  155.5986 C.ar    1  UNL1        0.0193
     22 C         143.6929  133.7150  156.9600 C.ar    1  UNL1        0.0985
     23 N         143.2989  135.1337  157.2463 N.ar    1  UNL1       -0.2459
     24 C         143.8512  131.7124  155.3122 C.ar    1  UNL1        0.0046
     25 C         143.8279  131.1973  153.9037 C.ar    1  UNL1        0.0207
     26 C         144.2220  129.7785  153.6174 C.ar    1  UNL1        0.0989
     27 N         144.6393  128.8751  154.7397 N.ar    1  UNL1       -0.2423
     28 C         144.6625  129.3902  156.1483 C.ar    1  UNL1        0.0989
     29 C         144.2684  130.8090  156.4345 C.ar    1  UNL1        0.0207
     30 C         138.0032  142.2859  163.2804 C.3     1  UNL1        0.1761
     31 O         140.9521  142.8237  163.4021 O.2     1  UNL1       -0.2701
     32 C         140.1889  142.5396  164.6618 C.2     1  UNL1        0.2462
     33 N         138.7145  142.2707  164.6010 N.am    1  UNL1       -0.2931
     34 H         138.2137  142.0841  165.4277 H       1  UNL1        0.1502
     35 C         140.9002  142.5243  165.9824 C.ar    1  UNL1        0.0533
     36 C         142.3689  142.2250  166.0398 C.ar    1  UNL1        0.0045
     37 C         143.0801  142.2098  167.3604 C.ar    1  UNL1        0.0001
     38 C         142.3227  142.4937  168.6235 C.ar    1  UNL1        0.0039
     39 C         140.8540  142.7930  168.5661 C.ar    1  UNL1        0.0716
     40 C         140.1427  142.8083  167.2455 C.ar    1  UNL1        0.0084
     41 C         140.0965  143.0770  169.8293 C.3     1  UNL1        0.4186
     42 F         139.3390  143.3609  171.0925 F       1  UNL1       -0.1659
     43 F         140.5696  144.4999  169.7931 F       1  UNL1       -0.1659
     44 F         139.6234  141.6540  169.8654 F       1  UNL1       -0.1659
@<TRIPOS>BOND
     1    31    32    2
     2    32    33   am
     3    33    30    1
     4    30     1    1
     5     1     2    2
     6     1     3   am
     7     3     4    1
     8     4     5    1
     9     5     6    1
    10     6     8    1
    11    10     8    1
    12    10    11    1
    13    11    12    1
    14    12    13    1
    15    13    14    1
    16    13    18    1
    17    18    19   ar
    18    19    20   ar
    19    20    21   ar
    20    21    24    1
    21    24    25   ar
    22    25    26   ar
    23    26    27   ar
    24    27    28   ar
    25    28    29   ar
    26    21    22   ar
    27    22    23   ar
    28    13    15    1
    29    15    16    1
    30     6     7    1
    31    32    35    1
    32    35    36   ar
    33    36    37   ar
    34    37    38   ar
    35    38    39   ar
    36    39    41    1
    37    41    42    1
    38    41    43    1
    39    41    44    1
    40    39    40   ar
    41     7     3    1
    42    40    35   ar
    43    16    10    1
    44    23    18   ar
    45    29    24   ar
    46    33    34    1
    47     8     9    1
    48    14    17    1
