@<TRIPOS>MOLECULE
*****
 28 31 0 0 0
SMALL
GASTEIGER

@<TRIPOS>ATOM
      1 C         139.6926  139.2861  164.5894 C.ar    1  UNL1        0.1314
      2 N         139.3240  137.8401  164.4369 N.ar    1  UNL1       -0.2292
      3 C         138.4228  137.1858  165.4418 C.ar    1  UNL1        0.1003
      4 C         137.8902  137.9775  166.5992 C.ar    1  UNL1        0.0204
      5 C         138.2588  139.4236  166.7517 C.ar    1  UNL1        0.0001
      6 C         139.1600  140.0778  165.7468 C.ar    1  UNL1        0.0104
      7 C         140.0071  140.6427  162.3962 C.3     1  UNL1        0.1188
      8 N         140.5938  139.9403  163.5846 N.pl3   1  UNL1       -0.2696
      9 C         142.0818  139.8922  163.7682 C.ar    1  UNL1        0.0721
     10 C         142.6728  139.1044  164.8996 C.ar    1  UNL1        0.0180
     11 C         144.1607  139.0562  165.0831 C.ar    1  UNL1        0.0220
     12 C         145.0577  139.7959  164.1353 C.ar    1  UNL1        0.0990
     13 N         144.4667  140.5837  163.0039 N.ar    1  UNL1       -0.2410
     14 C         142.9788  140.6318  162.8203 C.ar    1  UNL1        0.1137
     15 C         139.5286  141.5238  165.8993 C.3     1  UNL1        0.0380
     16 C         140.8098  141.9033  166.5809 C.3     1  UNL1        0.0520
     17 C         141.8647  142.6587  165.8280 C.ar    1  UNL1        0.0011
     18 C         143.3049  142.5361  166.2287 C.ar    1  UNL1       -0.0008
     19 C         144.3598  143.2915  165.4759 C.ar    1  UNL1        0.0204
     20 C         143.9743  144.1694  164.3223 C.ar    1  UNL1        0.0989
     21 N         142.5340  144.2920  163.9217 N.ar    1  UNL1       -0.2426
     22 C         141.4792  143.5366  164.6745 C.ar    1  UNL1        0.0949
     23 C         141.0362  141.5274  168.0153 C.ar    1  UNL1        0.0011
     24 C         141.5707  140.1687  168.3592 C.ar    1  UNL1       -0.0008
     25 C         141.7971  139.7929  169.7936 C.ar    1  UNL1        0.0204
     26 C         141.4890  140.7756  170.8840 C.ar    1  UNL1        0.0989
     27 N         140.9544  142.1344  170.5401 N.ar    1  UNL1       -0.2426
     28 C         140.7280  142.5103  169.1058 C.ar    1  UNL1        0.0949
@<TRIPOS>BOND
     1     7     8    1
     2     8     9    1
     3     9    10   ar
     4    10    11   ar
     5    11    12   ar
     6    12    13   ar
     7    13    14   ar
     8     8     1    1
     9     1     2   ar
    10     2     3   ar
    11     3     4   ar
    12     4     5   ar
    13     5     6   ar
    14     6    15    1
    15    15    16    1
    16    16    17    1
    17    17    18   ar
    18    18    19   ar
    19    19    20   ar
    20    20    21   ar
    21    21    22   ar
    22    16    23    1
    23    23    24   ar
    24    24    25   ar
    25    25    26   ar
    26    26    27   ar
    27    27    28   ar
    28    14     9   ar
    29     6     1   ar
    30    22    17   ar
    31    28    23   ar
@<TRIPOS>MOLECULE
*****
 28 31 0 0 0
SMALL
GASTEIGER

@<TRIPOS>ATOM
      1 C         139.6992  139.2966  164.5895 C.ar    1  UNL1        0.1314
      2 N         139.3303  137.8513  164.4315 N.ar    1  UNL1       -0.2292
      3 C         138.4284  137.1935  165.4334 C.ar    1  UNL1        0.1003
      4 C         137.8954  137.9810  166.5934 C.ar    1  UNL1        0.0204
      5 C         138.2642  139.4264  166.7515 C.ar    1  UNL1        0.0001
      6 C         139.1662  140.0842  165.7496 C.ar    1  UNL1        0.0104
      7 C         140.0151  140.6646  162.4035 C.3     1  UNL1        0.1188
      8 N         140.6011  139.9543  163.5876 N.pl3   1  UNL1       -0.2696
      9 C         142.0891  139.9019  163.7698 C.ar    1  UNL1        0.0721
     10 C         142.6789  139.1118  164.9002 C.ar    1  UNL1        0.0180
     11 C         144.1668  139.0594  165.0823 C.ar    1  UNL1        0.0220
     12 C         145.0650  139.7970  164.1341 C.ar    1  UNL1        0.0990
     13 N         144.4752  140.5871  163.0036 N.ar    1  UNL1       -0.2410
     14 C         142.9873  140.6395  162.8215 C.ar    1  UNL1        0.1137
     15 C         139.5351  141.5294  165.9077 C.3     1  UNL1        0.0380
     16 C         140.8176  141.9060  166.5883 C.3     1  UNL1        0.0520
     17 C         141.0454  141.5271  168.0217 C.ar    1  UNL1        0.0011
     18 C         141.5743  140.1655  168.3626 C.ar    1  UNL1       -0.0008
     19 C         141.8021  139.7866  169.7960 C.ar    1  UNL1        0.0204
     20 C         141.5009  140.7694  170.8885 C.ar    1  UNL1        0.0989
     21 N         140.9719  142.1310  170.5475 N.ar    1  UNL1       -0.2426
     22 C         140.7442  142.5098  169.1141 C.ar    1  UNL1        0.0949
     23 C         141.8724  142.6614  165.8355 C.ar    1  UNL1        0.0011
     24 C         143.3130  142.5367  166.2345 C.ar    1  UNL1       -0.0008
     25 C         144.3678  143.2922  165.4817 C.ar    1  UNL1        0.0204
     26 C         143.9821  144.1722  164.3300 C.ar    1  UNL1        0.0989
     27 N         142.5415  144.2969  163.9309 N.ar    1  UNL1       -0.2426
     28 C         141.4867  143.5415  164.6836 C.ar    1  UNL1        0.0949
@<TRIPOS>BOND
     1     7     8    1
     2     8     9    1
     3     9    10   ar
     4    10    11   ar
     5    11    12   ar
     6    12    13   ar
     7    13    14   ar
     8     8     1    1
     9     1     2   ar
    10     2     3   ar
    11     3     4   ar
    12     4     5   ar
    13     5     6   ar
    14     6    15    1
    15    15    16    1
    16    16    17    1
    17    17    18   ar
    18    18    19   ar
    19    19    20   ar
    20    20    21   ar
    21    21    22   ar
    22    16    23    1
    23    23    24   ar
    24    24    25   ar
    25    25    26   ar
    26    26    27   ar
    27    27    28   ar
    28    14     9   ar
    29     6     1   ar
    30    22    17   ar
    31    28    23   ar
@<TRIPOS>MOLECULE
*****
 28 31 0 0 0
SMALL
GASTEIGER

@<TRIPOS>ATOM
      1 C         140.2856  142.8636  163.2385 C.ar    1  UNL1        0.1314
      2 N         139.2615  143.5585  162.3909 N.ar    1  UNL1       -0.2292
      3 C         138.2534  144.4685  163.0277 C.ar    1  UNL1        0.1003
      4 C         138.2693  144.6837  164.5120 C.ar    1  UNL1        0.0204
      5 C         139.2934  143.9888  165.3597 C.ar    1  UNL1        0.0001
      6 C         140.3015  143.0788  164.7230 C.ar    1  UNL1        0.0104
      7 C         142.4898  142.5304  161.9042 C.3     1  UNL1        0.1188
      8 N         141.2937  141.9536  162.6017 N.pl3   1  UNL1       -0.2696
      9 C         141.1057  140.4666  162.6625 C.ar    1  UNL1        0.0721
     10 C         142.1474  139.6048  163.3121 C.ar    1  UNL1        0.0180
     11 C         141.9594  138.1179  163.3728 C.ar    1  UNL1        0.0220
     12 C         140.7296  137.4928  162.7839 C.ar    1  UNL1        0.0990
     13 N         139.6878  138.3546  162.1342 N.ar    1  UNL1       -0.2410
     14 C         139.8759  139.8414  162.0735 C.ar    1  UNL1        0.1137
     15 C         141.3255  142.3839  165.5705 C.3     1  UNL1        0.0380
     16 C         140.9296  141.7917  166.8906 C.3     1  UNL1        0.0520
     17 C         139.8733  140.7282  166.9489 C.ar    1  UNL1        0.0011
     18 C         139.3109  140.1592  165.6801 C.ar    1  UNL1       -0.0008
     19 C         138.2546  139.0958  165.7385 C.ar    1  UNL1        0.0204
     20 C         137.7606  138.6014  167.0657 C.ar    1  UNL1        0.0989
     21 N         138.3230  139.1705  168.3346 N.ar    1  UNL1       -0.2426
     22 C         139.3793  140.2339  168.2762 C.ar    1  UNL1        0.0949
     23 C         141.5899  142.2629  168.1523 C.ar    1  UNL1        0.0011
     24 C         142.9795  141.8076  168.4867 C.ar    1  UNL1       -0.0008
     25 C         143.6398  142.2788  169.7484 C.ar    1  UNL1        0.0204
     26 C         142.9107  143.2052  170.6757 C.ar    1  UNL1        0.0989
     27 N         141.5210  143.6606  170.3413 N.ar    1  UNL1       -0.2426
     28 C         140.8607  143.1894  169.0796 C.ar    1  UNL1        0.0949
@<TRIPOS>BOND
     1     7     8    1
     2     8     9    1
     3     9    10   ar
     4    10    11   ar
     5    11    12   ar
     6    12    13   ar
     7    13    14   ar
     8     8     1    1
     9     1     2   ar
    10     2     3   ar
    11     3     4   ar
    12     4     5   ar
    13     5     6   ar
    14     6    15    1
    15    15    16    1
    16    16    17    1
    17    17    18   ar
    18    18    19   ar
    19    19    20   ar
    20    20    21   ar
    21    21    22   ar
    22    16    23    1
    23    23    24   ar
    24    24    25   ar
    25    25    26   ar
    26    26    27   ar
    27    27    28   ar
    28    14     9   ar
    29     6     1   ar
    30    22    17   ar
    31    28    23   ar
@<TRIPOS>MOLECULE
*****
 28 31 0 0 0
SMALL
GASTEIGER

@<TRIPOS>ATOM
      1 C         141.5566  139.3199  163.8622 C.ar    1  UNL1        0.1314
      2 N         142.4843  138.7670  162.8212 N.ar    1  UNL1       -0.2292
      3 C         143.9687  138.8425  163.0233 C.ar    1  UNL1        0.1003
      4 C         144.5254  139.4709  164.2664 C.ar    1  UNL1        0.0204
      5 C         143.5976  140.0238  165.3074 C.ar    1  UNL1        0.0001
      6 C         142.1132  139.9483  165.1053 C.ar    1  UNL1        0.0104
      7 C         139.3179  138.0212  164.0900 C.3     1  UNL1        0.1188
      8 N         140.0722  139.2444  163.6600 N.pl3   1  UNL1       -0.2696
      9 C         139.3420  140.3922  163.0279 C.ar    1  UNL1        0.0721
     10 C         140.0616  141.3117  162.0864 C.ar    1  UNL1        0.0180
     11 C         139.3315  142.4594  161.4543 C.ar    1  UNL1        0.0220
     12 C         137.8816  142.6877  161.7639 C.ar    1  UNL1        0.0990
     13 N         137.1619  141.7682  162.7055 N.ar    1  UNL1       -0.2410
     14 C         137.8921  140.6205  163.3375 C.ar    1  UNL1        0.1137
     15 C         141.1855  140.5012  166.1462 C.3     1  UNL1        0.0380
     16 C         141.2755  141.9458  166.5398 C.3     1  UNL1        0.0520
     17 C         141.7691  142.3217  167.9056 C.ar    1  UNL1        0.0011
     18 C         143.1984  142.0673  168.2828 C.ar    1  UNL1       -0.0008
     19 C         143.6920  142.4432  169.6485 C.ar    1  UNL1        0.0204
     20 C         142.7562  143.0736  170.6369 C.ar    1  UNL1        0.0989
     21 N         141.3268  143.3280  170.2597 N.ar    1  UNL1       -0.2426
     22 C         140.8333  142.9520  168.8940 C.ar    1  UNL1        0.0949
     23 C         140.8719  143.0145  165.5678 C.ar    1  UNL1        0.0011
     24 C         139.4654  143.5358  165.5676 C.ar    1  UNL1       -0.0008
     25 C         139.0618  144.6046  164.5955 C.ar    1  UNL1        0.0204
     26 C         140.0647  145.1520  163.6237 C.ar    1  UNL1        0.0989
     27 N         141.4712  144.6307  163.6238 N.ar    1  UNL1       -0.2426
     28 C         141.8748  143.5619  164.5959 C.ar    1  UNL1        0.0949
@<TRIPOS>BOND
     1     7     8    1
     2     8     9    1
     3     9    10   ar
     4    10    11   ar
     5    11    12   ar
     6    12    13   ar
     7    13    14   ar
     8     8     1    1
     9     1     2   ar
    10     2     3   ar
    11     3     4   ar
    12     4     5   ar
    13     5     6   ar
    14     6    15    1
    15    15    16    1
    16    16    17    1
    17    17    18   ar
    18    18    19   ar
    19    19    20   ar
    20    20    21   ar
    21    21    22   ar
    22    16    23    1
    23    23    24   ar
    24    24    25   ar
    25    25    26   ar
    26    26    27   ar
    27    27    28   ar
    28    14     9   ar
    29     6     1   ar
    30    22    17   ar
    31    28    23   ar
@<TRIPOS>MOLECULE
*****
 28 31 0 0 0
SMALL
GASTEIGER

@<TRIPOS>ATOM
      1 C         141.5071  139.2739  163.8420 C.ar    1  UNL1        0.1314
      2 N         142.4111  138.6743  162.8060 N.ar    1  UNL1       -0.2292
      3 C         143.8989  138.7215  162.9910 C.ar    1  UNL1        0.1003
      4 C         144.4827  139.3683  164.2119 C.ar    1  UNL1        0.0204
      5 C         143.5788  139.9679  165.2480 C.ar    1  UNL1        0.0001
      6 C         142.0910  139.9208  165.0630 C.ar    1  UNL1        0.0104
      7 C         139.2497  138.0093  164.0757 C.3     1  UNL1        0.1188
      8 N         140.0193  139.2268  163.6570 N.pl3   1  UNL1       -0.2696
      9 C         139.3011  140.3972  163.0533 C.ar    1  UNL1        0.0721
     10 C         140.0234  141.3174  162.1145 C.ar    1  UNL1        0.0180
     11 C         139.3052  142.4877  161.5108 C.ar    1  UNL1        0.0220
     12 C         137.8647  142.7379  161.8461 C.ar    1  UNL1        0.0990
     13 N         137.1424  141.8177  162.7849 N.ar    1  UNL1       -0.2410
     14 C         137.8606  140.6474  163.3886 C.ar    1  UNL1        0.1137
     15 C         141.1870  140.5204  166.0990 C.3     1  UNL1        0.0380
     16 C         141.3422  141.9611  166.4863 C.3     1  UNL1        0.0520
     17 C         141.0454  143.0420  165.4894 C.ar    1  UNL1        0.0011
     18 C         142.1265  143.5359  164.5745 C.ar    1  UNL1       -0.0008
     19 C         141.8297  144.6167  163.5776 C.ar    1  UNL1        0.0204
     20 C         140.4517  145.2036  163.4957 C.ar    1  UNL1        0.0989
     21 N         139.3705  144.7096  164.4106 N.ar    1  UNL1       -0.2426
     22 C         139.6674  143.6288  165.4075 C.ar    1  UNL1        0.0949
     23 C         141.7941  142.3212  167.8706 C.ar    1  UNL1        0.0011
     24 C         143.2218  142.1008  168.2745 C.ar    1  UNL1       -0.0008
     25 C         143.6738  142.4609  169.6587 C.ar    1  UNL1        0.0204
     26 C         142.6981  143.0412  170.6391 C.ar    1  UNL1        0.0989
     27 N         141.2703  143.2616  170.2352 N.ar    1  UNL1       -0.2426
     28 C         140.8183  142.9015  168.8510 C.ar    1  UNL1        0.0949
@<TRIPOS>BOND
     1     7     8    1
     2     8     9    1
     3     9    10   ar
     4    10    11   ar
     5    11    12   ar
     6    12    13   ar
     7    13    14   ar
     8     8     1    1
     9     1     2   ar
    10     2     3   ar
    11     3     4   ar
    12     4     5   ar
    13     5     6   ar
    14     6    15    1
    15    15    16    1
    16    16    17    1
    17    17    18   ar
    18    18    19   ar
    19    19    20   ar
    20    20    21   ar
    21    21    22   ar
    22    16    23    1
    23    23    24   ar
    24    24    25   ar
    25    25    26   ar
    26    26    27   ar
    27    27    28   ar
    28    14     9   ar
    29     6     1   ar
    30    22    17   ar
    31    28    23   ar
@<TRIPOS>MOLECULE
*****
 28 31 0 0 0
SMALL
GASTEIGER

@<TRIPOS>ATOM
      1 C         141.6866  143.4877  163.8015 C.ar    1  UNL1        0.1314
      2 N         142.9054  143.7012  162.9537 N.ar    1  UNL1       -0.2292
      3 C         144.2706  143.4745  163.5323 C.ar    1  UNL1        0.1003
      4 C         144.4171  143.0345  164.9588 C.ar    1  UNL1        0.0204
      5 C         143.1982  142.8210  165.8067 C.ar    1  UNL1        0.0001
      6 C         141.8330  143.0476  165.2281 C.ar    1  UNL1        0.0104
      7 C         139.8035  145.1111  163.0476 C.3     1  UNL1        0.1188
      8 N         140.3214  143.7143  163.2229 N.pl3   1  UNL1       -0.2696
      9 C         139.4740  142.5441  162.8196 C.ar    1  UNL1        0.0721
     10 C         140.1221  141.2728  162.3572 C.ar    1  UNL1        0.0180
     11 C         139.2747  140.1027  161.9539 C.ar    1  UNL1        0.0220
     12 C         137.7793  140.2038  162.0131 C.ar    1  UNL1        0.0990
     13 N         137.1312  141.4750  162.4755 N.ar    1  UNL1       -0.2410
     14 C         137.9786  142.6452  162.8788 C.ar    1  UNL1        0.1137
     15 C         140.6142  142.8341  166.0759 C.3     1  UNL1        0.0380
     16 C         140.4565  141.5627  166.8559 C.3     1  UNL1        0.0520
     17 C         140.1589  140.2771  166.1425 C.ar    1  UNL1        0.0011
     18 C         141.2829  139.3922  165.6913 C.ar    1  UNL1       -0.0008
     19 C         140.9853  138.1066  164.9779 C.ar    1  UNL1        0.0204
     20 C         139.5638  137.7061  164.7156 C.ar    1  UNL1        0.0989
     21 N         138.4398  138.5911  165.1669 N.ar    1  UNL1       -0.2426
     22 C         138.7374  139.8766  165.8802 C.ar    1  UNL1        0.0949
     23 C         140.5963  141.5766  168.3493 C.ar    1  UNL1        0.0011
     24 C         140.4363  140.3055  169.1295 C.ar    1  UNL1       -0.0008
     25 C         140.5762  140.3195  170.6229 C.ar    1  UNL1        0.0204
     26 C         140.8760  141.6045  171.3361 C.ar    1  UNL1        0.0989
     27 N         141.0361  142.8757  170.5559 N.ar    1  UNL1       -0.2426
     28 C         140.8962  142.8617  169.0625 C.ar    1  UNL1        0.0949
@<TRIPOS>BOND
     1     7     8    1
     2     8     9    1
     3     9    10   ar
     4    10    11   ar
     5    11    12   ar
     6    12    13   ar
     7    13    14   ar
     8     8     1    1
     9     1     2   ar
    10     2     3   ar
    11     3     4   ar
    12     4     5   ar
    13     5     6   ar
    14     6    15    1
    15    15    16    1
    16    16    17    1
    17    17    18   ar
    18    18    19   ar
    19    19    20   ar
    20    20    21   ar
    21    21    22   ar
    22    16    23    1
    23    23    24   ar
    24    24    25   ar
    25    25    26   ar
    26    26    27   ar
    27    27    28   ar
    28    14     9   ar
    29     6     1   ar
    30    22    17   ar
    31    28    23   ar
@<TRIPOS>MOLECULE
*****
 28 31 0 0 0
SMALL
GASTEIGER

@<TRIPOS>ATOM
      1 C         141.6350  143.4875  163.8481 C.ar    1  UNL1        0.1314
      2 N         142.8505  143.7322  163.0039 N.ar    1  UNL1       -0.2292
      3 C         144.2193  143.5331  163.5842 C.ar    1  UNL1        0.1003
      4 C         144.3726  143.0891  165.0088 C.ar    1  UNL1        0.0204
      5 C         143.1571  142.8444  165.8531 C.ar    1  UNL1        0.0001
      6 C         141.7883  143.0435  165.2728 C.ar    1  UNL1        0.0104
      7 C         139.7216  145.0729  163.0896 C.3     1  UNL1        0.1188
      8 N         140.2663  143.6867  163.2678 N.pl3   1  UNL1       -0.2696
      9 C         139.4421  142.4996  162.8657 C.ar    1  UNL1        0.0721
     10 C         140.1149  141.2180  162.4722 C.ar    1  UNL1        0.0180
     11 C         139.2908  140.0310  162.0701 C.ar    1  UNL1        0.0220
     12 C         137.7938  140.1255  162.0616 C.ar    1  UNL1        0.0990
     13 N         137.1209  141.4070  162.4552 N.ar    1  UNL1       -0.2410
     14 C         137.9451  142.5941  162.8573 C.ar    1  UNL1        0.1137
     15 C         140.5729  142.7988  166.1170 C.3     1  UNL1        0.0380
     16 C         140.4571  141.5348  166.9163 C.3     1  UNL1        0.0520
     17 C         140.6177  141.5729  168.4072 C.ar    1  UNL1        0.0011
     18 C         140.3841  140.3331  169.2186 C.ar    1  UNL1       -0.0008
     19 C         140.5447  140.3712  170.7096 C.ar    1  UNL1        0.0204
     20 C         140.9388  141.6490  171.3891 C.ar    1  UNL1        0.0989
     21 N         141.1724  142.8889  170.5776 N.ar    1  UNL1       -0.2426
     22 C         141.0118  142.8508  169.0867 C.ar    1  UNL1        0.0949
     23 C         140.1807  140.2328  166.2247 C.ar    1  UNL1        0.0011
     24 C         138.7668  139.7680  166.0381 C.ar    1  UNL1       -0.0008
     25 C         138.4904  138.4660  165.3465 C.ar    1  UNL1        0.0204
     26 C         139.6279  137.6287  164.8416 C.ar    1  UNL1        0.0989
     27 N         141.0419  138.0934  165.0283 N.ar    1  UNL1       -0.2426
     28 C         141.3183  139.3955  165.7198 C.ar    1  UNL1        0.0949
@<TRIPOS>BOND
     1     7     8    1
     2     8     9    1
     3     9    10   ar
     4    10    11   ar
     5    11    12   ar
     6    12    13   ar
     7    13    14   ar
     8     8     1    1
     9     1     2   ar
    10     2     3   ar
    11     3     4   ar
    12     4     5   ar
    13     5     6   ar
    14     6    15    1
    15    15    16    1
    16    16    17    1
    17    17    18   ar
    18    18    19   ar
    19    19    20   ar
    20    20    21   ar
    21    21    22   ar
    22    16    23    1
    23    23    24   ar
    24    24    25   ar
    25    25    26   ar
    26    26    27   ar
    27    27    28   ar
    28    14     9   ar
    29     6     1   ar
    30    22    17   ar
    31    28    23   ar
@<TRIPOS>MOLECULE
*****
 28 31 0 0 0
SMALL
GASTEIGER

@<TRIPOS>ATOM
      1 C         143.6094  141.5889  163.6834 C.ar    1  UNL1        0.1314
      2 N         144.2039  142.0944  162.4025 N.ar    1  UNL1       -0.2292
      3 C         144.2419  143.5677  162.1232 C.ar    1  UNL1        0.1003
      4 C         143.6853  144.5355  163.1249 C.ar    1  UNL1        0.0204
      5 C         143.0907  144.0300  164.4060 C.ar    1  UNL1        0.0001
      6 C         143.0528  142.5568  164.6853 C.ar    1  UNL1        0.0104
      7 C         144.7709  139.4323  164.5494 C.3     1  UNL1        0.1188
      8 N         143.5714  140.1156  163.9627 N.pl3   1  UNL1       -0.2696
      9 C         142.3339  139.3257  163.6553 C.ar    1  UNL1        0.0721
     10 C         141.6102  138.6071  164.7553 C.ar    1  UNL1        0.0180
     11 C         140.3727  137.8172  164.4478 C.ar    1  UNL1        0.0220
     12 C         139.8589  137.7458  163.0404 C.ar    1  UNL1        0.0990
     13 N         140.5825  138.4643  161.9404 N.ar    1  UNL1       -0.2410
     14 C         141.8200  139.2543  162.2479 C.ar    1  UNL1        0.1137
     15 C         142.4582  142.0513  165.9662 C.3     1  UNL1        0.0380
     16 C         140.9726  142.0893  166.1699 C.3     1  UNL1        0.0520
     17 C         140.3776  141.5790  167.4488 C.ar    1  UNL1        0.0011
     18 C         140.4746  142.3992  168.7009 C.ar    1  UNL1       -0.0008
     19 C         139.8796  141.8889  169.9798 C.ar    1  UNL1        0.0204
     20 C         139.1876  140.5583  170.0066 C.ar    1  UNL1        0.0989
     21 N         139.0906  139.7381  168.7544 N.ar    1  UNL1       -0.2426
     22 C         139.6856  140.2484  167.4756 C.ar    1  UNL1        0.0949
     23 C         140.0820  142.6376  165.0947 C.ar    1  UNL1        0.0011
     24 C         139.6029  144.0570  165.1690 C.ar    1  UNL1       -0.0008
     25 C         138.7123  144.6053  164.0937 C.ar    1  UNL1        0.0204
     26 C         138.3007  143.7341  162.9442 C.ar    1  UNL1        0.0989
     27 N         138.7797  142.3146  162.8698 N.ar    1  UNL1       -0.2426
     28 C         139.6704  141.7663  163.9450 C.ar    1  UNL1        0.0949
@<TRIPOS>BOND
     1     7     8    1
     2     8     9    1
     3     9    10   ar
     4    10    11   ar
     5    11    12   ar
     6    12    13   ar
     7    13    14   ar
     8     8     1    1
     9     1     2   ar
    10     2     3   ar
    11     3     4   ar
    12     4     5   ar
    13     5     6   ar
    14     6    15    1
    15    15    16    1
    16    16    17    1
    17    17    18   ar
    18    18    19   ar
    19    19    20   ar
    20    20    21   ar
    21    21    22   ar
    22    16    23    1
    23    23    24   ar
    24    24    25   ar
    25    25    26   ar
    26    26    27   ar
    27    27    28   ar
    28    14     9   ar
    29     6     1   ar
    30    22    17   ar
    31    28    23   ar
@<TRIPOS>MOLECULE
*****
 28 31 0 0 0
SMALL
GASTEIGER

@<TRIPOS>ATOM
      1 C         139.0709  141.9728  163.0976 C.ar    1  UNL1        0.1314
      2 N         138.9930  143.1122  162.1252 N.ar    1  UNL1       -0.2292
      3 C         139.0166  144.5267  162.6239 C.ar    1  UNL1        0.1003
      4 C         139.1179  144.8017  164.0950 C.ar    1  UNL1        0.0204
      5 C         139.1958  143.6622  165.0674 C.ar    1  UNL1        0.0001
      6 C         139.1723  142.2478  164.5687 C.ar    1  UNL1        0.0104
      7 C         137.7389  139.8949  162.2865 C.3     1  UNL1        0.1188
      8 N         139.0474  140.5583  162.5989 N.pl3   1  UNL1       -0.2696
      9 C         140.3325  139.8073  162.4126 C.ar    1  UNL1        0.0721
     10 C         140.5282  138.4785  163.0804 C.ar    1  UNL1        0.0180
     11 C         141.8132  137.7276  162.8941 C.ar    1  UNL1        0.0220
     12 C         142.9025  138.3054  162.0400 C.ar    1  UNL1        0.0990
     13 N         142.7068  139.6341  161.3722 N.ar    1  UNL1       -0.2410
     14 C         141.4218  140.3851  161.5585 C.ar    1  UNL1        0.1137
     15 C         139.2501  141.1083  165.5411 C.3     1  UNL1        0.0380
     16 C         140.3954  141.0227  166.5060 C.3     1  UNL1        0.0520
     17 C         140.2355  141.5341  167.9071 C.ar    1  UNL1        0.0011
     18 C         140.6695  142.9282  168.2507 C.ar    1  UNL1       -0.0008
     19 C         140.5096  143.4396  169.6518 C.ar    1  UNL1        0.0204
     20 C         139.9158  142.5569  170.7092 C.ar    1  UNL1        0.0989
     21 N         139.4819  141.1627  170.3655 N.ar    1  UNL1       -0.2426
     22 C         139.6417  140.6513  168.9645 C.ar    1  UNL1        0.0949
     23 C         141.7005  140.4257  166.0698 C.ar    1  UNL1        0.0011
     24 C         142.1356  139.0965  166.6118 C.ar    1  UNL1       -0.0008
     25 C         143.4407  138.4995  166.1757 C.ar    1  UNL1        0.0204
     26 C         144.3108  139.2317  165.1976 C.ar    1  UNL1        0.0989
     27 N         143.8758  140.5611  164.6555 N.ar    1  UNL1       -0.2426
     28 C         142.5706  141.1580  165.0917 C.ar    1  UNL1        0.0949
@<TRIPOS>BOND
     1     7     8    1
     2     8     9    1
     3     9    10   ar
     4    10    11   ar
     5    11    12   ar
     6    12    13   ar
     7    13    14   ar
     8     8     1    1
     9     1     2   ar
    10     2     3   ar
    11     3     4   ar
    12     4     5   ar
    13     5     6   ar
    14     6    15    1
    15    15    16    1
    16    16    17    1
    17    17    18   ar
    18    18    19   ar
    19    19    20   ar
    20    20    21   ar
    21    21    22   ar
    22    16    23    1
    23    23    24   ar
    24    24    25   ar
    25    25    26   ar
    26    26    27   ar
    27    27    28   ar
    28    14     9   ar
    29     6     1   ar
    30    22    17   ar
    31    28    23   ar
