@<TRIPOS>MOLECULE
*****
 31 34 0 0 0
SMALL
GASTEIGER

@<TRIPOS>ATOM
      1 C         143.2697  138.6389  159.1285 C.ar    1  UNL1        0.1233
      2 C         142.5816  137.6365  158.2500 C.ar    1  UNL1        0.1179
      3 N         142.9593  137.9296  156.8282 N.ar    1  UNL1       -0.2257
      4 N         143.8807  139.1133  156.8280 N.ar    1  UNL1       -0.0635
      5 N         144.0726  139.5516  158.2496 N.ar    1  UNL1       -0.1287
      6 C         142.0335  137.9914  162.8437 C.ar    1  UNL1        0.1547
      7 C         142.1311  137.9150  161.3488 C.ar    1  UNL1        0.0400
      8 C         143.1721  138.7152  160.6234 C.ar    1  UNL1        0.0241
      9 C         144.1153  139.5917  161.3928 C.ar    1  UNL1        0.0033
     10 C         144.0176  139.6680  162.8877 C.ar    1  UNL1        0.0207
     11 C         142.9767  138.8678  163.6131 C.ar    1  UNL1        0.0994
     12 N         142.8791  138.9442  165.1080 N.ar    1  UNL1       -0.2839
     13 C         143.7932  138.2689  166.0869 C.ar    1  UNL1        0.1826
     14 N         143.3292  138.6166  167.4703 N.ar    1  UNL1       -0.2280
     15 C         142.1283  139.5068  167.3464 C.ar    1  UNL1        0.0786
     16 C         141.3434  140.0918  168.4829 C.3     1  UNL1        0.0538
     17 C         141.8501  139.7093  165.8864 C.ar    1  UNL1        0.0963
     18 C         139.5494  137.5928  163.4921 C.3     1  UNL1        0.2525
     19 O         140.9925  137.1912  163.5691 O.3     1  UNL1       -0.4700
     20 C         142.4966  137.1722  155.6190 C.3     1  UNL1        0.1557
     21 C         142.5234  135.6724  155.6178 C.ar    1  UNL1        0.0052
     22 C         141.2720  134.9002  155.3209 C.ar    1  UNL1       -0.0021
     23 C         141.2987  133.4005  155.3197 C.ar    1  UNL1        0.0029
     24 C         142.5767  132.6729  155.6155 C.ar    1  UNL1        0.0372
     25 C         143.8279  133.4450  155.9124 C.ar    1  UNL1        0.1466
     26 C         143.8012  134.9448  155.9135 C.ar    1  UNL1        0.0349
     27 O         145.1059  132.7174  156.2081 O.3     1  UNL1       -0.4045
     28 C         145.1571  131.7139  157.3218 C.3     1  UNL1        0.5753
     29 F         145.2084  130.7104  158.4355 F       1  UNL1       -0.1328
     30 F         145.1591  132.8283  158.3259 F       1  UNL1       -0.1328
     31 F         145.1552  130.5995  156.3177 F       1  UNL1       -0.1328
@<TRIPOS>BOND
     1    18    19    1
     2    19     6    1
     3     6     7   ar
     4     7     8   ar
     5     8     1    1
     6     1     2   ar
     7     2     3   ar
     8     3    20    1
     9    20    21    1
    10    21    22   ar
    11    22    23   ar
    12    23    24   ar
    13    24    25   ar
    14    25    27    1
    15    27    28    1
    16    28    29    1
    17    28    30    1
    18    28    31    1
    19    25    26   ar
    20     3     4   ar
    21     4     5   ar
    22     8     9   ar
    23     9    10   ar
    24    10    11   ar
    25    11    12    1
    26    12    13   ar
    27    13    14   ar
    28    14    15   ar
    29    15    16    1
    30    15    17   ar
    31    11     6   ar
    32    17    12   ar
    33     5     1   ar
    34    26    21   ar
@<TRIPOS>MOLECULE
*****
 31 34 0 0 0
SMALL
GASTEIGER

@<TRIPOS>ATOM
      1 C         143.1255  138.7867  159.4634 C.ar    1  UNL1        0.1233
      2 C         142.1723  138.0381  158.5797 C.ar    1  UNL1        0.1179
      3 N         142.5725  138.2817  157.1548 N.ar    1  UNL1       -0.2257
      4 N         143.7732  139.1809  157.1579 N.ar    1  UNL1       -0.0635
      5 N         144.1149  139.4930  158.5847 N.ar    1  UNL1       -0.1287
      6 C         144.1522  139.5620  163.2177 C.ar    1  UNL1        0.1547
      7 C         144.1829  139.5260  161.7185 C.ar    1  UNL1        0.0400
      8 C         143.0947  138.8227  160.9628 C.ar    1  UNL1        0.0241
      9 C         141.9759  138.1554  161.7062 C.ar    1  UNL1        0.0033
     10 C         141.9452  138.1914  163.2054 C.ar    1  UNL1        0.0207
     11 C         143.0334  138.8947  163.9612 C.ar    1  UNL1        0.0994
     12 N         143.0026  138.9307  165.4605 N.ar    1  UNL1       -0.2839
     13 C         143.8299  138.0820  166.3800 C.ar    1  UNL1        0.1826
     14 N         143.4777  138.4485  167.7912 N.ar    1  UNL1       -0.2280
     15 C         142.4328  139.5237  167.7440 C.ar    1  UNL1        0.0786
     16 C         141.7938  140.1848  168.9291 C.3     1  UNL1        0.0538
     17 C         142.1392  139.8217  166.3035 C.ar    1  UNL1        0.0963
     18 C         145.7195  141.6121  163.5190 C.3     1  UNL1        0.2525
     19 O         145.2404  140.2653  163.9735 O.3     1  UNL1       -0.4700
     20 C         141.8917  137.7241  155.9401 C.3     1  UNL1        0.1557
     21 C         142.1258  136.2983  155.5373 C.ar    1  UNL1        0.0052
     22 C         142.0272  135.9008  154.0941 C.ar    1  UNL1       -0.0021
     23 C         142.2612  134.4750  153.6913 C.ar    1  UNL1        0.0029
     24 C         142.5939  133.4467  154.7315 C.ar    1  UNL1        0.0372
     25 C         142.6924  133.8442  156.1745 C.ar    1  UNL1        0.1466
     26 C         142.4584  135.2700  156.5773 C.ar    1  UNL1        0.0349
     27 O         143.0251  132.8158  157.2146 O.3     1  UNL1       -0.4045
     28 C         144.4526  132.5890  157.6154 C.3     1  UNL1        0.5753
     29 F         145.8802  132.3621  158.0161 F       1  UNL1       -0.1328
     30 F         144.3501  133.7049  158.6124 F       1  UNL1       -0.1328
     31 F         144.5551  131.4729  156.6183 F       1  UNL1       -0.1328
@<TRIPOS>BOND
     1    18    19    1
     2    19     6    1
     3     6     7   ar
     4     7     8   ar
     5     8     1    1
     6     1     2   ar
     7     2     3   ar
     8     3    20    1
     9    20    21    1
    10    21    22   ar
    11    22    23   ar
    12    23    24   ar
    13    24    25   ar
    14    25    27    1
    15    27    28    1
    16    28    29    1
    17    28    30    1
    18    28    31    1
    19    25    26   ar
    20     3     4   ar
    21     4     5   ar
    22     8     9   ar
    23     9    10   ar
    24    10    11   ar
    25    11    12    1
    26    12    13   ar
    27    13    14   ar
    28    14    15   ar
    29    15    16    1
    30    15    17   ar
    31    11     6   ar
    32    17    12   ar
    33     5     1   ar
    34    26    21   ar
@<TRIPOS>MOLECULE
*****
 31 34 0 0 0
SMALL
GASTEIGER

@<TRIPOS>ATOM
      1 C         140.5915  144.3152  160.9329 C.ar    1  UNL1        0.1233
      2 C         140.2820  143.7115  162.2707 C.ar    1  UNL1        0.1179
      3 N         139.2060  144.5355  162.9134 N.ar    1  UNL1       -0.2257
      4 N         138.8504  145.6486  161.9728 N.ar    1  UNL1       -0.0635
      5 N         139.7067  145.5125  160.7488 N.ar    1  UNL1       -0.1287
      6 C         143.3618  142.0292  159.2448 C.ar    1  UNL1        0.1547
      7 C         142.3459  142.5340  160.2261 C.ar    1  UNL1        0.0400
      8 C         141.6074  143.8104  159.9515 C.ar    1  UNL1        0.0241
      9 C         141.8849  144.5821  158.6955 C.ar    1  UNL1        0.0033
     10 C         142.9008  144.0773  157.7141 C.ar    1  UNL1        0.0207
     11 C         143.6392  142.8008  157.9888 C.ar    1  UNL1        0.0994
     12 N         144.6551  142.2960  157.0073 N.ar    1  UNL1       -0.2839
     13 C         144.3665  141.4916  155.7747 C.ar    1  UNL1        0.1826
     14 N         145.6710  141.2055  155.0918 N.ar    1  UNL1       -0.2280
     15 C         146.7660  141.8331  155.9025 C.ar    1  UNL1        0.0786
     16 C         148.2315  141.7937  155.5850 C.3     1  UNL1        0.0538
     17 C         146.1381  142.5072  157.0863 C.ar    1  UNL1        0.0963
     18 C         143.8249  139.9827  160.7768 C.3     1  UNL1        0.2525
     19 O         144.1002  140.7528  159.5194 O.3     1  UNL1       -0.4700
     20 C         138.5930  144.2896  164.2602 C.3     1  UNL1        0.1557
     21 C         138.9709  143.0681  165.0445 C.ar    1  UNL1        0.0052
     22 C         139.9723  143.1710  166.1567 C.ar    1  UNL1       -0.0021
     23 C         140.3501  141.9495  166.9410 C.ar    1  UNL1        0.0029
     24 C         139.7267  140.6251  166.6132 C.ar    1  UNL1        0.0372
     25 C         138.7253  140.5223  165.5011 C.ar    1  UNL1        0.1466
     26 C         138.3475  141.7438  164.7168 C.ar    1  UNL1        0.0349
     27 O         138.1018  139.1980  165.1733 O.3     1  UNL1       -0.4045
     28 C         138.8151  138.2364  164.2697 C.3     1  UNL1        0.5753
     29 F         139.5283  137.2747  163.3660 F       1  UNL1       -0.1328
     30 F         138.2615  138.9508  163.0725 F       1  UNL1       -0.1328
     31 F         139.3686  137.5220  165.4669 F       1  UNL1       -0.1328
@<TRIPOS>BOND
     1    18    19    1
     2    19     6    1
     3     6     7   ar
     4     7     8   ar
     5     8     1    1
     6     1     2   ar
     7     2     3   ar
     8     3    20    1
     9    20    21    1
    10    21    22   ar
    11    22    23   ar
    12    23    24   ar
    13    24    25   ar
    14    25    27    1
    15    27    28    1
    16    28    29    1
    17    28    30    1
    18    28    31    1
    19    25    26   ar
    20     3     4   ar
    21     4     5   ar
    22     8     9   ar
    23     9    10   ar
    24    10    11   ar
    25    11    12    1
    26    12    13   ar
    27    13    14   ar
    28    14    15   ar
    29    15    16    1
    30    15    17   ar
    31    11     6   ar
    32    17    12   ar
    33     5     1   ar
    34    26    21   ar
@<TRIPOS>MOLECULE
*****
 31 34 0 0 0
SMALL
GASTEIGER

@<TRIPOS>ATOM
      1 C         141.0070  144.4169  160.8927 C.ar    1  UNL1        0.1233
      2 C         140.7396  143.9073  162.2779 C.ar    1  UNL1        0.1179
      3 N         139.6391  144.7355  162.8720 N.ar    1  UNL1       -0.2257
      4 N         139.2264  145.7570  161.8540 N.ar    1  UNL1       -0.0635
      5 N         140.0718  145.5600  160.6307 N.ar    1  UNL1       -0.1287
      6 C         142.9652  143.6729  157.5219 C.ar    1  UNL1        0.1547
      7 C         141.9422  144.2118  158.4774 C.ar    1  UNL1        0.0400
      8 C         142.0300  143.8779  159.9371 C.ar    1  UNL1        0.0241
      9 C         143.1408  143.0050  160.4413 C.ar    1  UNL1        0.0033
     10 C         144.1638  142.4661  159.4858 C.ar    1  UNL1        0.0207
     11 C         144.0760  142.8000  158.0261 C.ar    1  UNL1        0.0994
     12 N         145.0990  142.2610  157.0706 N.ar    1  UNL1       -0.2839
     13 C         144.8407  141.2873  155.9592 C.ar    1  UNL1        0.1826
     14 N         146.1420  141.0257  155.2604 N.ar    1  UNL1       -0.2280
     15 C         147.2045  141.8377  155.9400 C.ar    1  UNL1        0.0786
     16 C         148.6567  141.8790  155.5664 C.3     1  UNL1        0.0538
     17 C         146.5599  142.6012  157.0587 C.ar    1  UNL1        0.0963
     18 C         142.0161  145.1462  155.6039 C.3     1  UNL1        0.2525
     19 O         142.8774  144.0068  156.0622 O.3     1  UNL1       -0.4700
     20 C         139.0540  144.5712  164.2434 C.3     1  UNL1        0.1557
     21 C         139.1295  143.2432  164.9368 C.ar    1  UNL1        0.0052
     22 C         138.2771  142.1020  164.4663 C.ar    1  UNL1       -0.0021
     23 C         138.3526  140.7740  165.1597 C.ar    1  UNL1        0.0029
     24 C         139.2803  140.5873  166.3236 C.ar    1  UNL1        0.0372
     25 C         140.1325  141.7284  166.7940 C.ar    1  UNL1        0.1466
     26 C         140.0571  143.0564  166.1006 C.ar    1  UNL1        0.0349
     27 O         141.0603  141.5416  167.9578 O.3     1  UNL1       -0.4045
     28 C         141.2912  142.6680  168.9212 C.3     1  UNL1        0.5753
     29 F         141.5221  143.7943  169.8845 F       1  UNL1       -0.1328
     30 F         139.8633  142.5757  169.3713 F       1  UNL1       -0.1328
     31 F         142.7191  142.7601  168.4710 F       1  UNL1       -0.1328
@<TRIPOS>BOND
     1    18    19    1
     2    19     6    1
     3     6     7   ar
     4     7     8   ar
     5     8     1    1
     6     1     2   ar
     7     2     3   ar
     8     3    20    1
     9    20    21    1
    10    21    22   ar
    11    22    23   ar
    12    23    24   ar
    13    24    25   ar
    14    25    27    1
    15    27    28    1
    16    28    29    1
    17    28    30    1
    18    28    31    1
    19    25    26   ar
    20     3     4   ar
    21     4     5   ar
    22     8     9   ar
    23     9    10   ar
    24    10    11   ar
    25    11    12    1
    26    12    13   ar
    27    13    14   ar
    28    14    15   ar
    29    15    16    1
    30    15    17   ar
    31    11     6   ar
    32    17    12   ar
    33     5     1   ar
    34    26    21   ar
@<TRIPOS>MOLECULE
*****
 31 34 0 0 0
SMALL
GASTEIGER

@<TRIPOS>ATOM
      1 C         142.1041  138.8263  159.9569 C.ar    1  UNL1        0.1233
      2 C         141.4043  138.3887  158.7044 C.ar    1  UNL1        0.1179
      3 N         142.3902  138.4534  157.5758 N.ar    1  UNL1       -0.2257
      4 N         143.6994  138.9310  158.1307 N.ar    1  UNL1       -0.0635
      5 N         143.5226  139.1615  159.6023 N.ar    1  UNL1       -0.1287
      6 C         140.0764  140.2061  163.0769 C.ar    1  UNL1        0.1547
      7 C         140.6877  140.1188  161.7100 C.ar    1  UNL1        0.0400
      8 C         141.4928  138.9135  161.3239 C.ar    1  UNL1        0.0241
      9 C         141.6867  137.7955  162.3049 C.ar    1  UNL1        0.0033
     10 C         141.0754  137.8827  163.6719 C.ar    1  UNL1        0.0207
     11 C         140.2703  139.0880  164.0579 C.ar    1  UNL1        0.0994
     12 N         139.6590  139.1752  165.4250 N.ar    1  UNL1       -0.2839
     13 C         138.3930  138.5043  165.8691 C.ar    1  UNL1        0.1826
     14 N         138.1580  138.8631  167.3065 N.ar    1  UNL1       -0.2280
     15 C         139.2787  139.7557  167.7507 C.ar    1  UNL1        0.0786
     16 C         139.4429  140.3509  169.1177 C.3     1  UNL1        0.0538
     17 C         140.2063  139.9486  166.5878 C.ar    1  UNL1        0.0963
     18 C         137.7967  141.4471  163.1901 C.3     1  UNL1        0.2525
     19 O         139.2712  141.4114  163.4630 O.3     1  UNL1       -0.4700
     20 C         142.1153  138.1021  156.1436 C.3     1  UNL1        0.1557
     21 C         142.2670  136.6848  155.6766 C.ar    1  UNL1        0.0052
     22 C         142.2100  136.3678  154.2115 C.ar    1  UNL1       -0.0021
     23 C         142.3618  134.9504  153.7444 C.ar    1  UNL1        0.0029
     24 C         142.5705  133.8501  154.7423 C.ar    1  UNL1        0.0372
     25 C         142.6274  134.1672  156.2073 C.ar    1  UNL1        0.1466
     26 C         142.4757  135.5845  156.6744 C.ar    1  UNL1        0.0349
     27 O         142.8361  133.0669  157.2053 O.3     1  UNL1       -0.4045
     28 C         144.1985  132.4656  157.3847 C.3     1  UNL1        0.5753
     29 F         145.5609  131.8642  157.5642 F       1  UNL1       -0.1328
     30 F         144.5595  133.5675  158.3363 F       1  UNL1       -0.1328
     31 F         143.8374  131.3636  156.4332 F       1  UNL1       -0.1328
@<TRIPOS>BOND
     1    18    19    1
     2    19     6    1
     3     6     7   ar
     4     7     8   ar
     5     8     1    1
     6     1     2   ar
     7     2     3   ar
     8     3    20    1
     9    20    21    1
    10    21    22   ar
    11    22    23   ar
    12    23    24   ar
    13    24    25   ar
    14    25    27    1
    15    27    28    1
    16    28    29    1
    17    28    30    1
    18    28    31    1
    19    25    26   ar
    20     3     4   ar
    21     4     5   ar
    22     8     9   ar
    23     9    10   ar
    24    10    11   ar
    25    11    12    1
    26    12    13   ar
    27    13    14   ar
    28    14    15   ar
    29    15    16    1
    30    15    17   ar
    31    11     6   ar
    32    17    12   ar
    33     5     1   ar
    34    26    21   ar
@<TRIPOS>MOLECULE
*****
 31 34 0 0 0
SMALL
GASTEIGER

@<TRIPOS>ATOM
      1 C         142.6674  138.3801  158.5858 C.ar    1  UNL1        0.1233
      2 C         142.6266  137.1017  157.8022 C.ar    1  UNL1        0.1179
      3 N         143.4491  137.2916  156.5623 N.ar    1  UNL1       -0.2257
      4 N         143.9983  138.6873  156.5795 N.ar    1  UNL1       -0.0635
      5 N         143.5152  139.3600  157.8302 N.ar    1  UNL1       -0.1287
      6 C         141.9784  138.5316  162.4912 C.ar    1  UNL1        0.1547
      7 C         142.6648  138.2777  161.1819 C.ar    1  UNL1        0.0400
      8 C         141.9810  138.6340  159.8952 C.ar    1  UNL1        0.0241
      9 C         140.6109  139.2441  159.9179 C.ar    1  UNL1        0.0033
     10 C         139.9246  139.4980  161.2272 C.ar    1  UNL1        0.0207
     11 C         140.6083  139.1417  162.5139 C.ar    1  UNL1        0.0994
     12 N         139.9219  139.3956  163.8233 N.ar    1  UNL1       -0.2839
     13 C         139.9621  140.6743  164.6065 C.ar    1  UNL1        0.1826
     14 N         139.1398  140.4843  165.8466 N.ar    1  UNL1       -0.2280
     15 C         138.5915  139.0882  165.8298 C.ar    1  UNL1        0.0786
     16 C         137.7139  138.4729  166.8793 C.3     1  UNL1        0.0538
     17 C         139.0749  138.4153  164.5794 C.ar    1  UNL1        0.0963
     18 C         143.7185  139.0791  164.3412 C.3     1  UNL1        0.2525
     19 O         142.6622  138.1753  163.7779 O.3     1  UNL1       -0.4700
     20 C         143.6816  136.2658  155.4928 C.3     1  UNL1        0.1557
     21 C         143.1839  134.8629  155.6782 C.ar    1  UNL1        0.0052
     22 C         141.9055  134.4282  155.0248 C.ar    1  UNL1       -0.0021
     23 C         141.4079  133.0253  155.2102 C.ar    1  UNL1        0.0029
     24 C         142.1885  132.0573  156.0489 C.ar    1  UNL1        0.0372
     25 C         143.4668  132.4920  156.7023 C.ar    1  UNL1        0.1466
     26 C         143.9645  133.8949  156.5169 C.ar    1  UNL1        0.0349
     27 O         144.2475  131.5240  157.5410 O.3     1  UNL1       -0.4045
     28 C         144.5005  130.1326  157.0410 C.3     1  UNL1        0.5753
     29 F         144.7534  128.7412  156.5410 F       1  UNL1       -0.1328
     30 F         143.7213  129.5760  158.1956 F       1  UNL1       -0.1328
     31 F         145.2797  130.6893  155.8864 F       1  UNL1       -0.1328
@<TRIPOS>BOND
     1    18    19    1
     2    19     6    1
     3     6     7   ar
     4     7     8   ar
     5     8     1    1
     6     1     2   ar
     7     2     3   ar
     8     3    20    1
     9    20    21    1
    10    21    22   ar
    11    22    23   ar
    12    23    24   ar
    13    24    25   ar
    14    25    27    1
    15    27    28    1
    16    28    29    1
    17    28    30    1
    18    28    31    1
    19    25    26   ar
    20     3     4   ar
    21     4     5   ar
    22     8     9   ar
    23     9    10   ar
    24    10    11   ar
    25    11    12    1
    26    12    13   ar
    27    13    14   ar
    28    14    15   ar
    29    15    16    1
    30    15    17   ar
    31    11     6   ar
    32    17    12   ar
    33     5     1   ar
    34    26    21   ar
@<TRIPOS>MOLECULE
*****
 31 34 0 0 0
SMALL
GASTEIGER

@<TRIPOS>ATOM
      1 C         140.7347  144.2214  160.9010 C.ar    1  UNL1        0.1233
      2 C         140.4655  143.6314  162.2535 C.ar    1  UNL1        0.1179
      3 N         139.3893  144.4456  162.9085 N.ar    1  UNL1       -0.2257
      4 N         138.9934  145.5388  161.9606 N.ar    1  UNL1       -0.0635
      5 N         139.8249  145.4002  160.7200 N.ar    1  UNL1       -0.1287
      6 C         143.5078  141.9605  159.1838 C.ar    1  UNL1        0.1547
      7 C         142.5048  142.4614  160.1803 C.ar    1  UNL1        0.0400
      8 C         141.7378  143.7206  159.9044 C.ar    1  UNL1        0.0241
      9 C         141.9736  144.4788  158.6319 C.ar    1  UNL1        0.0033
     10 C         142.9766  143.9780  157.6353 C.ar    1  UNL1        0.0207
     11 C         143.7437  142.7188  157.9113 C.ar    1  UNL1        0.0994
     12 N         144.7467  142.2180  156.9146 N.ar    1  UNL1       -0.2839
     13 C         144.4392  141.4440  155.6671 C.ar    1  UNL1        0.1826
     14 N         145.7357  141.1508  154.9721 N.ar    1  UNL1       -0.2280
     15 C         146.8446  141.7437  155.7901 C.ar    1  UNL1        0.0786
     16 C         148.3077  141.6870  155.4646 C.3     1  UNL1        0.0538
     17 C         146.2333  142.4032  156.9906 C.ar    1  UNL1        0.0963
     18 C         143.5537  139.4698  159.9212 C.3     1  UNL1        0.2525
     19 O         144.2748  140.7014  159.4597 O.3     1  UNL1       -0.4700
     20 C         138.8105  144.2082  164.2718 C.3     1  UNL1        0.1557
     21 C         138.9832  142.8756  164.9383 C.ar    1  UNL1        0.0052
     22 C         138.1010  141.7248  164.5539 C.ar    1  UNL1       -0.0021
     23 C         138.2737  140.3922  165.2204 C.ar    1  UNL1        0.0029
     24 C         139.3285  140.2103  166.2713 C.ar    1  UNL1        0.0372
     25 C         140.2106  141.3610  166.6557 C.ar    1  UNL1        0.1466
     26 C         140.0379  142.6936  165.9892 C.ar    1  UNL1        0.0349
     27 O         141.2654  141.1791  167.7066 O.3     1  UNL1       -0.4045
     28 C         142.5329  141.9787  167.6434 C.3     1  UNL1        0.5753
     29 F         143.8004  142.7783  167.5801 F       1  UNL1       -0.1328
     30 F         143.0460  141.0796  166.5579 F       1  UNL1       -0.1328
     31 F         142.0198  142.8778  168.7289 F       1  UNL1       -0.1328
@<TRIPOS>BOND
     1    18    19    1
     2    19     6    1
     3     6     7   ar
     4     7     8   ar
     5     8     1    1
     6     1     2   ar
     7     2     3   ar
     8     3    20    1
     9    20    21    1
    10    21    22   ar
    11    22    23   ar
    12    23    24   ar
    13    24    25   ar
    14    25    27    1
    15    27    28    1
    16    28    29    1
    17    28    30    1
    18    28    31    1
    19    25    26   ar
    20     3     4   ar
    21     4     5   ar
    22     8     9   ar
    23     9    10   ar
    24    10    11   ar
    25    11    12    1
    26    12    13   ar
    27    13    14   ar
    28    14    15   ar
    29    15    16    1
    30    15    17   ar
    31    11     6   ar
    32    17    12   ar
    33     5     1   ar
    34    26    21   ar
@<TRIPOS>MOLECULE
*****
 31 34 0 0 0
SMALL
GASTEIGER

@<TRIPOS>ATOM
      1 C         143.9468  140.8537  161.4203 C.ar    1  UNL1        0.1233
      2 C         143.6824  140.7447  162.8927 C.ar    1  UNL1        0.1179
      3 N         144.2477  141.9652  163.5568 N.ar    1  UNL1       -0.2257
      4 N         144.8614  142.8286  162.4947 N.ar    1  UNL1       -0.0635
      5 N         144.6755  142.1416  161.1743 N.ar    1  UNL1       -0.1287
      6 C         143.0722  139.2583  157.8932 C.ar    1  UNL1        0.1547
      7 C         143.4671  140.2611  158.9366 C.ar    1  UNL1        0.0400
      8 C         143.5519  139.8509  160.3769 C.ar    1  UNL1        0.0241
      9 C         143.2419  138.4381  160.7739 C.ar    1  UNL1        0.0033
     10 C         142.8470  137.4354  159.7306 C.ar    1  UNL1        0.0207
     11 C         142.7622  137.8455  158.2903 C.ar    1  UNL1        0.0994
     12 N         142.3673  136.8427  157.2469 N.ar    1  UNL1       -0.2839
     13 C         141.1059  136.8647  156.4356 C.ar    1  UNL1        0.1826
     14 N         141.1235  135.6774  155.5190 N.ar    1  UNL1       -0.2280
     15 C         142.3959  134.9216  155.7638 C.ar    1  UNL1        0.0786
     16 C         142.8243  133.6662  155.0637 C.3     1  UNL1        0.0538
     17 C         143.1646  135.6418  156.8317 C.ar    1  UNL1        0.0963
     18 C         143.2812  141.0854  156.0580 C.3     1  UNL1        0.2525
     19 O         142.9874  139.6685  156.4529 O.3     1  UNL1       -0.4700
     20 C         144.2064  142.2690  165.0251 C.3     1  UNL1        0.1557
     21 C         142.8889  142.4785  165.7109 C.ar    1  UNL1        0.0052
     22 C         141.7230  143.0281  164.9436 C.ar    1  UNL1       -0.0021
     23 C         140.4055  143.2376  165.6294 C.ar    1  UNL1        0.0029
     24 C         140.2539  142.8974  167.0825 C.ar    1  UNL1        0.0372
     25 C         141.4198  142.3478  167.8497 C.ar    1  UNL1        0.1466
     26 C         142.7372  142.1384  167.1639 C.ar    1  UNL1        0.0349
     27 O         141.2682  142.0077  169.3028 O.3     1  UNL1       -0.4045
     28 C         140.2804  142.7550  170.1489 C.3     1  UNL1        0.5753
     29 F         139.2927  143.5022  170.9950 F       1  UNL1       -0.1328
     30 F         141.1855  143.9511  170.1491 F       1  UNL1       -0.1328
     31 F         139.3753  141.5587  170.1487 F       1  UNL1       -0.1328
@<TRIPOS>BOND
     1    18    19    1
     2    19     6    1
     3     6     7   ar
     4     7     8   ar
     5     8     1    1
     6     1     2   ar
     7     2     3   ar
     8     3    20    1
     9    20    21    1
    10    21    22   ar
    11    22    23   ar
    12    23    24   ar
    13    24    25   ar
    14    25    27    1
    15    27    28    1
    16    28    29    1
    17    28    30    1
    18    28    31    1
    19    25    26   ar
    20     3     4   ar
    21     4     5   ar
    22     8     9   ar
    23     9    10   ar
    24    10    11   ar
    25    11    12    1
    26    12    13   ar
    27    13    14   ar
    28    14    15   ar
    29    15    16    1
    30    15    17   ar
    31    11     6   ar
    32    17    12   ar
    33     5     1   ar
    34    26    21   ar
@<TRIPOS>MOLECULE
*****
 31 34 0 0 0
SMALL
GASTEIGER

@<TRIPOS>ATOM
      1 C         139.5344  139.0525  159.7585 C.ar    1  UNL1        0.1233
      2 C         140.7928  138.6694  159.0376 C.ar    1  UNL1        0.1179
      3 N         140.5266  138.7534  157.5638 N.ar    1  UNL1       -0.2257
      4 N         139.1036  139.1884  157.3738 N.ar    1  UNL1       -0.0635
      5 N         138.4905  139.3733  158.7302 N.ar    1  UNL1       -0.1287
      6 C         140.0563  138.3432  163.6282 C.ar    1  UNL1        0.1547
      7 C         140.2386  138.2901  162.1403 C.ar    1  UNL1        0.0400
      8 C         139.3520  139.1056  161.2465 C.ar    1  UNL1        0.0241
      9 C         138.2830  139.9740  161.8405 C.ar    1  UNL1        0.0033
     10 C         138.1006  140.0271  163.3284 C.ar    1  UNL1        0.0207
     11 C         138.9873  139.2116  164.2222 C.ar    1  UNL1        0.0994
     12 N         138.8048  139.2647  165.7102 N.ar    1  UNL1       -0.2839
     13 C         137.8546  138.4260  166.5125 C.ar    1  UNL1        0.1826
     14 N         138.0031  138.8087  167.9552 N.ar    1  UNL1       -0.2280
     15 C         139.0452  139.8840  168.0446 C.ar    1  UNL1        0.0786
     16 C         139.5102  140.5589  169.3009 C.3     1  UNL1        0.0538
     17 C         139.5407  140.1657  166.6571 C.ar    1  UNL1        0.0963
     18 C         142.2324  138.1038  165.0271 C.3     1  UNL1        0.2525
     19 O         140.9429  137.5277  164.5220 O.3     1  UNL1       -0.4700
     20 C         141.5105  138.4547  156.4717 C.3     1  UNL1        0.1557
     21 C         141.4280  137.1583  155.7216 C.ar    1  UNL1        0.0052
     22 C         140.9150  137.1387  154.3121 C.ar    1  UNL1       -0.0021
     23 C         140.8325  135.8423  153.5621 C.ar    1  UNL1        0.0029
     24 C         141.2628  134.5656  154.2215 C.ar    1  UNL1        0.0372
     25 C         141.7757  134.5852  155.6309 C.ar    1  UNL1        0.1466
     26 C         141.8582  135.8816  156.3809 C.ar    1  UNL1        0.0349
     27 O         142.2060  133.3085  156.2903 O.3     1  UNL1       -0.4045
     28 C         143.6315  132.8536  156.1854 C.3     1  UNL1        0.5753
     29 F         145.0570  132.3987  156.0805 F       1  UNL1       -0.1328
     30 F         143.8545  133.2212  157.6225 F       1  UNL1       -0.1328
     31 F         143.4084  132.4860  154.7483 F       1  UNL1       -0.1328
@<TRIPOS>BOND
     1    18    19    1
     2    19     6    1
     3     6     7   ar
     4     7     8   ar
     5     8     1    1
     6     1     2   ar
     7     2     3   ar
     8     3    20    1
     9    20    21    1
    10    21    22   ar
    11    22    23   ar
    12    23    24   ar
    13    24    25   ar
    14    25    27    1
    15    27    28    1
    16    28    29    1
    17    28    30    1
    18    28    31    1
    19    25    26   ar
    20     3     4   ar
    21     4     5   ar
    22     8     9   ar
    23     9    10   ar
    24    10    11   ar
    25    11    12    1
    26    12    13   ar
    27    13    14   ar
    28    14    15   ar
    29    15    16    1
    30    15    17   ar
    31    11     6   ar
    32    17    12   ar
    33     5     1   ar
    34    26    21   ar
