@<TRIPOS>MOLECULE
*****
 36 40 0 0 0
SMALL
GASTEIGER

@<TRIPOS>ATOM
      1 C         144.0740  140.5305  161.1235 C.ar    1  UNL1        0.2221
      2 N         144.1375  139.1985  160.4366 N.ar    1  UNL1       -0.2119
      3 C         143.6272  137.9711  161.1317 C.ar    1  UNL1        0.1050
      4 C         143.0536  138.0756  162.5137 C.ar    1  UNL1        0.0596
      5 C         142.9901  139.4075  163.2006 C.ar    1  UNL1        0.1682
      6 N         143.5003  140.6349  162.5056 N.ar    1  UNL1       -0.1944
      7 N         142.4164  139.5121  164.5826 N.ar    1  UNL1       -0.2112
      8 C         143.1912  139.4530  165.8657 C.ar    1  UNL1        0.1003
      9 C         142.2209  139.5984  167.0003 C.ar    1  UNL1        0.0283
     10 C         140.8464  139.7474  166.4184 C.ar    1  UNL1        0.0782
     11 C         139.5743  139.9195  167.1944 C.3     1  UNL1        0.0537
     12 N         140.9673  139.6940  164.9242 N.ar    1  UNL1       -0.1684
     13 C         142.5647  139.5954  168.4603 C.3     1  UNL1        0.1021
     14 N         142.7013  140.8925  169.2013 N.3     1  UNL1       -0.2647
     15 C         142.4244  141.3471  170.6037 C.3     1  UNL1        0.1034
     16 C         142.8945  142.7267  170.2493 C.3     1  UNL1        0.1423
     17 O         143.0311  144.0238  170.9903 O.3     1  UNL1       -0.3816
     18 C         143.1714  142.2721  168.8469 C.3     1  UNL1        0.1034
     19 H         143.3826  144.7021  170.3926 H       1  UNL1        0.2105
     20 N         144.5842  141.7579  160.4285 N.pl3   1  UNL1       -0.2825
     21 H         145.5522  141.9318  160.3839 H       1  UNL1        0.1551
     22 C         140.3699  145.0212  160.5486 C.ar    1  UNL1        0.1554
     23 N         139.7812  145.8465  159.4431 N.ar    1  UNL1       -0.1646
     24 N         140.5973  145.6141  158.2062 N.ar    1  UNL1       -0.2487
     25 C         140.3617  146.2407  156.8638 C.3     1  UNL1        0.1537
     26 C         141.6904  144.6452  158.5472 C.ar    1  UNL1        0.0796
     27 C         142.7955  144.0492  157.7266 C.ar    1  UNL1        0.0201
     28 C         143.7601  143.0868  158.3537 C.ar    1  UNL1        0.0162
     29 C         143.6195  142.7204  159.8014 C.ar    1  UNL1        0.0506
     30 C         142.5144  143.3163  160.6221 C.ar    1  UNL1        0.0179
     31 C         141.5498  144.2787  159.9950 C.ar    1  UNL1        0.0423
     32 C         137.9962  144.3330  163.6538 C.3     1  UNL1        0.1110
     33 N         138.4991  144.4035  162.2424 N.am    1  UNL1       -0.2979
     34 C         139.8670  144.9507  161.9600 C.2     1  UNL1        0.2654
     35 O         140.7318  145.4272  163.0891 O.2     1  UNL1       -0.2684
     36 H         137.9314  144.0907  161.5014 H       1  UNL1        0.1498
@<TRIPOS>BOND
     1    32    33    1
     2    33    34   am
     3    34    35    2
     4    34    22    1
     5    22    23   ar
     6    23    24   ar
     7    24    25    1
     8    24    26   ar
     9    26    27   ar
    10    27    28   ar
    11    28    29   ar
    12    29    20    1
    13    20     1    1
    14     1     2   ar
    15     2     3   ar
    16     3     4   ar
    17     4     5   ar
    18     5     7    1
    19     7     8   ar
    20     8     9   ar
    21     9    13    1
    22    13    14    1
    23    14    15    1
    24    15    16    1
    25    16    17    1
    26    16    18    1
    27     9    10   ar
    28    10    11    1
    29    10    12   ar
    30     5     6   ar
    31    29    30   ar
    32    30    31   ar
    33    31    22   ar
    34    31    26   ar
    35     6     1   ar
    36    12     7   ar
    37    18    14    1
    38    33    36    1
    39    20    21    1
    40    17    19    1
@<TRIPOS>MOLECULE
*****
 36 40 0 0 0
SMALL
GASTEIGER

@<TRIPOS>ATOM
      1 C         144.2955  141.2994  161.7142 C.ar    1  UNL1        0.2221
      2 N         145.5096  141.7792  162.4528 N.ar    1  UNL1       -0.2119
      3 C         145.5416  141.7353  163.9519 C.ar    1  UNL1        0.1050
      4 C         144.3594  141.2115  164.7122 C.ar    1  UNL1        0.0596
      5 C         143.1453  140.7317  163.9736 C.ar    1  UNL1        0.1682
      6 N         143.1133  140.7756  162.4746 N.ar    1  UNL1       -0.1944
      7 N         141.9631  140.2079  164.7339 N.ar    1  UNL1       -0.2112
      8 C         141.5651  140.6015  166.1256 C.ar    1  UNL1        0.1003
      9 C         140.3274  139.8355  166.4879 C.ar    1  UNL1        0.0283
     10 C         139.9605  138.9684  165.3201 C.ar    1  UNL1        0.0782
     11 C         138.7884  138.0350  165.2488 C.3     1  UNL1        0.0537
     12 N         140.9715  139.1986  164.2361 N.ar    1  UNL1       -0.1684
     13 C         139.5867  139.9213  167.7894 C.3     1  UNL1        0.1021
     14 N         140.3311  140.2150  169.0581 N.3     1  UNL1       -0.2647
     15 C         140.2539  141.2808  170.1107 C.3     1  UNL1        0.1034
     16 C         141.3839  140.6303  170.8523 C.3     1  UNL1        0.1423
     17 O         142.1283  140.9239  172.1210 O.3     1  UNL1       -0.3816
     18 C         141.4612  139.5645  169.7996 C.3     1  UNL1        0.1034
     19 H         142.8093  140.2473  172.2603 H       1  UNL1        0.2105
     20 N         144.2635  141.3433  160.2152 N.pl3   1  UNL1       -0.2825
     21 H         144.7780  140.6866  159.6924 H       1  UNL1        0.1551
     22 C         140.4045  145.0160  160.0069 C.ar    1  UNL1        0.1554
     23 N         139.9811  145.8784  158.8551 N.ar    1  UNL1       -0.1646
     24 N         140.8534  145.5451  157.6812 N.ar    1  UNL1       -0.2487
     25 C         140.7766  146.1704  156.3199 C.3     1  UNL1        0.1537
     26 C         141.8159  144.4766  158.1076 C.ar    1  UNL1        0.0796
     27 C         142.9092  143.7592  157.3727 C.ar    1  UNL1        0.0201
     28 C         143.7250  142.7147  158.0753 C.ar    1  UNL1        0.0162
     29 C         143.4476  142.3877  159.5127 C.ar    1  UNL1        0.0506
     30 C         142.3544  143.1052  160.2475 C.ar    1  UNL1        0.0179
     31 C         141.5385  144.1496  159.5450 C.ar    1  UNL1        0.0423
     32 C         138.1014  144.0545  163.0927 C.3     1  UNL1        0.1110
     33 N         138.7059  144.0512  161.7199 N.am    1  UNL1       -0.2979
     34 C         139.8001  145.0193  161.3798 C.2     1  UNL1        0.2654
     35 O         140.2897  145.9906  162.4125 O.2     1  UNL1       -0.2684
     36 H         138.3844  143.4136  161.0420 H       1  UNL1        0.1498
@<TRIPOS>BOND
     1    32    33    1
     2    33    34   am
     3    34    35    2
     4    34    22    1
     5    22    23   ar
     6    23    24   ar
     7    24    25    1
     8    24    26   ar
     9    26    27   ar
    10    27    28   ar
    11    28    29   ar
    12    29    20    1
    13    20     1    1
    14     1     2   ar
    15     2     3   ar
    16     3     4   ar
    17     4     5   ar
    18     5     7    1
    19     7     8   ar
    20     8     9   ar
    21     9    13    1
    22    13    14    1
    23    14    15    1
    24    15    16    1
    25    16    17    1
    26    16    18    1
    27     9    10   ar
    28    10    11    1
    29    10    12   ar
    30     5     6   ar
    31    29    30   ar
    32    30    31   ar
    33    31    22   ar
    34    31    26   ar
    35     6     1   ar
    36    12     7   ar
    37    18    14    1
    38    33    36    1
    39    20    21    1
    40    17    19    1
@<TRIPOS>MOLECULE
*****
 36 40 0 0 0
SMALL
GASTEIGER

@<TRIPOS>ATOM
      1 C         138.6880  138.5170  165.1193 C.ar    1  UNL1        0.2221
      2 N         137.6734  138.2363  166.1879 N.ar    1  UNL1       -0.2119
      3 C         137.8487  138.8172  167.5598 C.ar    1  UNL1        0.1050
      4 C         139.0384  139.6788  167.8630 C.ar    1  UNL1        0.0596
      5 C         140.0530  139.9596  166.7944 C.ar    1  UNL1        0.1682
      6 N         139.8778  139.3787  165.4226 N.ar    1  UNL1       -0.1944
      7 N         141.2427  140.8212  167.0977 N.ar    1  UNL1       -0.2112
      8 C         142.0813  141.5523  166.0915 C.ar    1  UNL1        0.1003
      9 C         143.1597  142.2860  166.8323 C.ar    1  UNL1        0.0283
     10 C         142.9876  142.0084  168.2963 C.ar    1  UNL1        0.0782
     11 C         143.8489  142.5423  169.4022 C.3     1  UNL1        0.0537
     12 N         141.8028  141.1031  168.4603 N.ar    1  UNL1       -0.1684
     13 C         144.2234  143.1463  166.2171 C.3     1  UNL1        0.1021
     14 N         144.5372  143.0210  164.7556 N.3     1  UNL1       -0.2647
     15 C         145.3349  142.0639  163.9203 C.3     1  UNL1        0.1034
     16 C         144.9809  142.8437  162.6888 C.3     1  UNL1        0.1423
     17 O         145.2946  142.7184  161.2273 O.3     1  UNL1       -0.3816
     18 C         144.1832  143.8008  163.5241 C.3     1  UNL1        0.1034
     19 H         144.8657  143.4402  160.7415 H       1  UNL1        0.2105
     20 N         138.5128  137.9362  163.7476 N.pl3   1  UNL1       -0.2825
     21 H         138.3770  136.9674  163.6369 H       1  UNL1        0.1551
     22 C         138.5869  142.7098  161.3746 C.ar    1  UNL1        0.1554
     23 N         138.6226  143.0381  159.9114 N.ar    1  UNL1       -0.1646
     24 N         138.6355  141.7475  159.1471 N.ar    1  UNL1       -0.2487
     25 C         138.6701  141.6073  157.6541 C.3     1  UNL1        0.1537
     26 C         138.6079  140.6216  160.1379 C.ar    1  UNL1        0.0796
     27 C         138.6063  139.1317  159.9644 C.ar    1  UNL1        0.0201
     28 C         138.5745  138.2366  161.1676 C.ar    1  UNL1        0.0162
     29 C         138.5445  138.8314  162.5443 C.ar    1  UNL1        0.0506
     30 C         138.5462  140.3213  162.7178 C.ar    1  UNL1        0.0179
     31 C         138.5779  141.2164  161.5147 C.ar    1  UNL1        0.0423
     32 C         139.6153  144.6625  164.6732 C.3     1  UNL1        0.1110
     33 N         139.6379  143.6713  163.5475 N.am    1  UNL1       -0.2979
     34 C         138.5643  143.7010  162.5003 C.2     1  UNL1        0.2654
     35 O         137.4682  144.7219  162.5788 O.2     1  UNL1       -0.2684
     36 H         140.3574  143.0012  163.4960 H       1  UNL1        0.1498
@<TRIPOS>BOND
     1    32    33    1
     2    33    34   am
     3    34    35    2
     4    34    22    1
     5    22    23   ar
     6    23    24   ar
     7    24    25    1
     8    24    26   ar
     9    26    27   ar
    10    27    28   ar
    11    28    29   ar
    12    29    20    1
    13    20     1    1
    14     1     2   ar
    15     2     3   ar
    16     3     4   ar
    17     4     5   ar
    18     5     7    1
    19     7     8   ar
    20     8     9   ar
    21     9    13    1
    22    13    14    1
    23    14    15    1
    24    15    16    1
    25    16    17    1
    26    16    18    1
    27     9    10   ar
    28    10    11    1
    29    10    12   ar
    30     5     6   ar
    31    29    30   ar
    32    30    31   ar
    33    31    22   ar
    34    31    26   ar
    35     6     1   ar
    36    12     7   ar
    37    18    14    1
    38    33    36    1
    39    20    21    1
    40    17    19    1
@<TRIPOS>MOLECULE
*****
 36 40 0 0 0
SMALL
GASTEIGER

@<TRIPOS>ATOM
      1 C         141.1011  144.8703  161.6750 C.ar    1  UNL1        0.2221
      2 N         139.8725  145.4758  162.2864 N.ar    1  UNL1       -0.2119
      3 C         139.3528  144.9580  163.5949 C.ar    1  UNL1        0.1050
      4 C         140.0618  143.8349  164.2918 C.ar    1  UNL1        0.0596
      5 C         141.2904  143.2294  163.6804 C.ar    1  UNL1        0.1682
      6 N         141.8101  143.7470  162.3721 N.ar    1  UNL1       -0.1944
      7 N         141.9994  142.1062  164.3774 N.ar    1  UNL1       -0.2112
      8 C         141.7107  141.6055  165.7616 C.ar    1  UNL1        0.1003
      9 C         142.6544  140.4763  166.0523 C.ar    1  UNL1        0.0283
     10 C         143.5263  140.2792  164.8476 C.ar    1  UNL1        0.0782
     11 C         144.6123  139.2546  164.7035 C.3     1  UNL1        0.0537
     12 N         143.1214  141.2865  163.8126 N.ar    1  UNL1       -0.1684
     13 C         142.7155  139.6835  167.3242 C.3     1  UNL1        0.1021
     14 N         142.5294  140.3694  168.6451 N.3     1  UNL1       -0.2647
     15 C         141.7884  140.0517  169.9100 C.3     1  UNL1        0.1034
     16 C         142.2661  141.3393  170.5133 C.3     1  UNL1        0.1423
     17 O         142.0800  142.0251  171.8343 O.3     1  UNL1       -0.3816
     18 C         143.0072  141.6569  169.2484 C.3     1  UNL1        0.1034
     19 H         142.5653  142.8650  171.8337 H       1  UNL1        0.2105
     20 N         141.6208  145.3879  160.3666 N.pl3   1  UNL1       -0.2825
     21 H         142.3638  146.0337  160.3529 H       1  UNL1        0.1551
     22 C         139.2449  146.2011  155.6637 C.ar    1  UNL1        0.1554
     23 N         138.7957  145.1960  154.6449 N.ar    1  UNL1       -0.1646
     24 N         139.1289  143.8288  155.1643 N.ar    1  UNL1       -0.2487
     25 C         138.8550  142.5296  154.4664 C.3     1  UNL1        0.1537
     26 C         139.7840  143.9889  156.5041 C.ar    1  UNL1        0.0796
     27 C         140.3246  142.9891  157.4829 C.ar    1  UNL1        0.0201
     28 C         140.9368  143.4555  158.7704 C.ar    1  UNL1        0.0162
     29 C         141.0085  144.9216  159.0791 C.ar    1  UNL1        0.0506
     30 C         140.4680  145.9214  158.1002 C.ar    1  UNL1        0.0179
     31 C         139.8558  145.4551  156.8128 C.ar    1  UNL1        0.0423
     32 C         138.3954  149.9673  156.5826 C.3     1  UNL1        0.1110
     33 N         138.5328  148.4777  156.6933 N.am    1  UNL1       -0.2979
     34 C         139.1075  147.6907  155.5529 C.2     1  UNL1        0.2654
     35 O         139.5445  148.3932  154.3019 O.2     1  UNL1       -0.2684
     36 H         138.2459  148.0166  157.5145 H       1  UNL1        0.1498
@<TRIPOS>BOND
     1    32    33    1
     2    33    34   am
     3    34    35    2
     4    34    22    1
     5    22    23   ar
     6    23    24   ar
     7    24    25    1
     8    24    26   ar
     9    26    27   ar
    10    27    28   ar
    11    28    29   ar
    12    29    20    1
    13    20     1    1
    14     1     2   ar
    15     2     3   ar
    16     3     4   ar
    17     4     5   ar
    18     5     7    1
    19     7     8   ar
    20     8     9   ar
    21     9    13    1
    22    13    14    1
    23    14    15    1
    24    15    16    1
    25    16    17    1
    26    16    18    1
    27     9    10   ar
    28    10    11    1
    29    10    12   ar
    30     5     6   ar
    31    29    30   ar
    32    30    31   ar
    33    31    22   ar
    34    31    26   ar
    35     6     1   ar
    36    12     7   ar
    37    18    14    1
    38    33    36    1
    39    20    21    1
    40    17    19    1
@<TRIPOS>MOLECULE
*****
 36 40 0 0 0
SMALL
GASTEIGER

@<TRIPOS>ATOM
      1 C         142.9726  143.7385  162.3351 C.ar    1  UNL1        0.2221
      2 N         144.4421  143.6308  162.6163 N.ar    1  UNL1       -0.2119
      3 C         144.9511  142.5758  163.5533 C.ar    1  UNL1        0.1050
      4 C         143.9906  141.6285  164.2091 C.ar    1  UNL1        0.0596
      5 C         142.5211  141.7362  163.9280 C.ar    1  UNL1        0.1682
      6 N         142.0121  142.7912  162.9910 N.ar    1  UNL1       -0.1944
      7 N         141.5606  140.7890  164.5838 N.ar    1  UNL1       -0.2112
      8 C         140.8083  141.0375  165.8575 C.ar    1  UNL1        0.1003
      9 C         139.9665  139.8290  166.1420 C.ar    1  UNL1        0.0283
     10 C         140.1986  138.8336  165.0440 C.ar    1  UNL1        0.0782
     11 C         139.5579  137.4822  164.9293 C.3     1  UNL1        0.0537
     12 N         141.1838  139.4269  164.0811 N.ar    1  UNL1       -0.1684
     13 C         139.0531  139.6477  167.3179 C.3     1  UNL1        0.1021
     14 N         139.5529  139.9224  168.7052 N.3     1  UNL1       -0.2647
     15 C         138.9227  140.3719  169.9901 C.3     1  UNL1        0.1034
     16 C         140.2597  140.3108  170.6673 C.3     1  UNL1        0.1423
     17 O         140.7596  140.5855  172.0546 O.3     1  UNL1       -0.3816
     18 C         140.8900  139.8613  169.3824 C.3     1  UNL1        0.1034
     19 H         141.7154  140.4246  172.0917 H       1  UNL1        0.2105
     20 N         142.4636  144.7935  161.3982 N.pl3   1  UNL1       -0.2825
     21 H         142.7686  145.7247  161.4930 H       1  UNL1        0.1551
     22 C         138.5782  141.7986  159.3105 C.ar    1  UNL1        0.1554
     23 N         137.8908  141.9317  157.9840 N.ar    1  UNL1       -0.1646
     24 N         138.4868  143.1080  157.2691 N.ar    1  UNL1       -0.2487
     25 C         138.0957  143.6035  155.9084 C.3     1  UNL1        0.1537
     26 C         139.5426  143.7019  158.1538 C.ar    1  UNL1        0.0796
     27 C         140.4597  144.8750  157.9736 C.ar    1  UNL1        0.0201
     28 C         141.4334  145.2389  159.0550 C.ar    1  UNL1        0.0162
     29 C         141.4899  144.4296  160.3167 C.ar    1  UNL1        0.0506
     30 C         140.5727  143.2565  160.4970 C.ar    1  UNL1        0.0179
     31 C         139.5990  142.8926  159.4155 C.ar    1  UNL1        0.0423
     32 C         138.6034  138.3392  161.2553 C.3     1  UNL1        0.1110
     33 N         138.8870  139.3831  160.2161 N.am    1  UNL1       -0.2979
     34 C         138.2946  140.7547  160.3497 C.2     1  UNL1        0.2654
     35 O         137.4187  141.0823  161.5224 O.2     1  UNL1       -0.2684
     36 H         139.4620  139.1680  159.4465 H       1  UNL1        0.1498
@<TRIPOS>BOND
     1    32    33    1
     2    33    34   am
     3    34    35    2
     4    34    22    1
     5    22    23   ar
     6    23    24   ar
     7    24    25    1
     8    24    26   ar
     9    26    27   ar
    10    27    28   ar
    11    28    29   ar
    12    29    20    1
    13    20     1    1
    14     1     2   ar
    15     2     3   ar
    16     3     4   ar
    17     4     5   ar
    18     5     7    1
    19     7     8   ar
    20     8     9   ar
    21     9    13    1
    22    13    14    1
    23    14    15    1
    24    15    16    1
    25    16    17    1
    26    16    18    1
    27     9    10   ar
    28    10    11    1
    29    10    12   ar
    30     5     6   ar
    31    29    30   ar
    32    30    31   ar
    33    31    22   ar
    34    31    26   ar
    35     6     1   ar
    36    12     7   ar
    37    18    14    1
    38    33    36    1
    39    20    21    1
    40    17    19    1
@<TRIPOS>MOLECULE
*****
 36 40 0 0 0
SMALL
GASTEIGER

@<TRIPOS>ATOM
      1 C         137.9834  140.0960  161.9266 C.ar    1  UNL1        0.2221
      2 N         137.8550  138.7075  161.3739 N.ar    1  UNL1       -0.2119
      3 C         138.3907  137.5395  162.1479 C.ar    1  UNL1        0.1050
      4 C         139.0548  137.7602  163.4746 C.ar    1  UNL1        0.0596
      5 C         139.1833  139.1487  164.0274 C.ar    1  UNL1        0.1682
      6 N         138.6476  140.3166  163.2534 N.ar    1  UNL1       -0.1944
      7 N         139.8474  139.3693  165.3541 N.ar    1  UNL1       -0.2112
      8 C         139.1694  139.8121  166.6167 C.ar    1  UNL1        0.1003
      9 C         140.2092  139.9023  167.6941 C.ar    1  UNL1        0.0283
     10 C         141.5298  139.5153  167.0973 C.ar    1  UNL1        0.0782
     11 C         142.8434  139.4663  167.8198 C.3     1  UNL1        0.0537
     12 N         141.3062  139.1859  165.6511 N.ar    1  UNL1       -0.1684
     13 C         139.9702  140.3083  169.1182 C.3     1  UNL1        0.1021
     14 N         140.0377  141.7555  169.5070 N.3     1  UNL1       -0.2647
     15 C         139.6560  142.5459  170.7233 C.3     1  UNL1        0.1034
     16 C         140.1332  143.8021  170.0568 C.3     1  UNL1        0.1423
     17 O         140.2007  145.2493  170.4455 O.3     1  UNL1       -0.3816
     18 C         140.5149  143.0117  168.8404 C.3     1  UNL1        0.1034
     19 H         140.5855  145.7620  169.7176 H       1  UNL1        0.2105
     20 N         137.4477  141.2638  161.1527 N.pl3   1  UNL1       -0.2825
     21 H         136.4873  141.4778  161.1863 H       1  UNL1        0.1551
     22 C         141.4370  144.7492  160.5513 C.ar    1  UNL1        0.1554
     23 N         142.0190  145.3117  159.2884 N.ar    1  UNL1       -0.1646
     24 N         141.2732  144.7185  158.1301 N.ar    1  UNL1       -0.2487
     25 C         141.5258  145.0042  156.6794 C.3     1  UNL1        0.1537
     26 C         140.2302  143.7894  158.6770 C.ar    1  UNL1        0.0796
     27 C         139.2015  142.9286  158.0058 C.ar    1  UNL1        0.0201
     28 C         138.2740  142.0868  158.8310 C.ar    1  UNL1        0.0162
     29 C         138.3753  142.1057  160.3275 C.ar    1  UNL1        0.0506
     30 C         139.4040  142.9666  160.9987 C.ar    1  UNL1        0.0179
     31 C         140.3315  143.8084  160.1735 C.ar    1  UNL1        0.0423
     32 C         143.7527  145.1579  163.7484 C.3     1  UNL1        0.1110
     33 N         143.3074  144.8361  162.3526 N.am    1  UNL1       -0.2979
     34 C         141.8824  145.0710  161.9471 C.2     1  UNL1        0.2654
     35 O         140.9029  145.6276  162.9373 O.2     1  UNL1       -0.2684
     36 H         143.9503  144.4708  161.7027 H       1  UNL1        0.1498
@<TRIPOS>BOND
     1    32    33    1
     2    33    34   am
     3    34    35    2
     4    34    22    1
     5    22    23   ar
     6    23    24   ar
     7    24    25    1
     8    24    26   ar
     9    26    27   ar
    10    27    28   ar
    11    28    29   ar
    12    29    20    1
    13    20     1    1
    14     1     2   ar
    15     2     3   ar
    16     3     4   ar
    17     4     5   ar
    18     5     7    1
    19     7     8   ar
    20     8     9   ar
    21     9    13    1
    22    13    14    1
    23    14    15    1
    24    15    16    1
    25    16    17    1
    26    16    18    1
    27     9    10   ar
    28    10    11    1
    29    10    12   ar
    30     5     6   ar
    31    29    30   ar
    32    30    31   ar
    33    31    22   ar
    34    31    26   ar
    35     6     1   ar
    36    12     7   ar
    37    18    14    1
    38    33    36    1
    39    20    21    1
    40    17    19    1
@<TRIPOS>MOLECULE
*****
 36 40 0 0 0
SMALL
GASTEIGER

@<TRIPOS>ATOM
      1 C         140.7921  139.0945  161.3505 C.ar    1  UNL1        0.2221
      2 N         139.5099  138.4280  160.9483 N.ar    1  UNL1       -0.2119
      3 C         138.4959  138.0615  161.9912 C.ar    1  UNL1        0.1050
      4 C         138.7641  138.3616  163.4362 C.ar    1  UNL1        0.0596
      5 C         140.0463  139.0281  163.8383 C.ar    1  UNL1        0.1682
      6 N         141.0603  139.3946  162.7955 N.ar    1  UNL1       -0.1944
      7 N         140.3145  139.3282  165.2833 N.ar    1  UNL1       -0.2112
      8 C         141.6518  139.2777  165.9608 C.ar    1  UNL1        0.1003
      9 C         141.4563  139.6498  167.4007 C.ar    1  UNL1        0.0283
     10 C         139.9981  139.9301  167.6131 C.ar    1  UNL1        0.0782
     11 C         139.3580  140.3376  168.9070 C.3     1  UNL1        0.0537
     12 N         139.2924  139.7313  166.3045 N.ar    1  UNL1       -0.1684
     13 C         142.5304  139.7277  168.4449 C.3     1  UNL1        0.1021
     14 N         142.7351  140.9975  169.2169 N.3     1  UNL1       -0.2647
     15 C         142.5582  141.4086  170.6485 C.3     1  UNL1        0.1034
     16 C         143.0247  142.7931  170.3087 C.3     1  UNL1        0.1423
     17 O         143.2294  144.0628  171.0806 O.3     1  UNL1       -0.3816
     18 C         143.2016  142.3820  168.8770 C.3     1  UNL1        0.1034
     19 H         143.5509  144.7561  170.4833 H       1  UNL1        0.2105
     20 N         141.8061  139.4610  160.3077 N.pl3   1  UNL1       -0.2825
     21 H         142.4866  138.8055  160.0310 H       1  UNL1        0.1551
     22 C         140.4710  144.6217  160.2187 C.ar    1  UNL1        0.1554
     23 N         140.7693  145.6578  159.1758 N.ar    1  UNL1       -0.1646
     24 N         141.5521  144.9992  158.0788 N.ar    1  UNL1       -0.2487
     25 C         142.0602  145.6666  156.8352 C.3     1  UNL1        0.1537
     26 C         141.7376  143.5561  158.4436 C.ar    1  UNL1        0.0796
     27 C         142.4285  142.4244  157.7424 C.ar    1  UNL1        0.0201
     28 C         142.4514  141.0594  158.3638 C.ar    1  UNL1        0.0162
     29 C         141.7832  140.8261  159.6863 C.ar    1  UNL1        0.0506
     30 C         141.0922  141.9578  160.3875 C.ar    1  UNL1        0.0179
     31 C         141.0694  143.3228  159.7662 C.ar    1  UNL1        0.0423
     32 C         137.7826  144.1851  163.1053 C.3     1  UNL1        0.1110
     33 N         138.5454  143.9616  161.8332 N.am    1  UNL1       -0.2979
     34 C         139.7082  144.8453  161.4908 C.2     1  UNL1        0.2654
     35 O         140.1081  145.9523  162.4205 O.2     1  UNL1       -0.2684
     36 H         138.2829  143.2350  161.2230 H       1  UNL1        0.1498
@<TRIPOS>BOND
     1    32    33    1
     2    33    34   am
     3    34    35    2
     4    34    22    1
     5    22    23   ar
     6    23    24   ar
     7    24    25    1
     8    24    26   ar
     9    26    27   ar
    10    27    28   ar
    11    28    29   ar
    12    29    20    1
    13    20     1    1
    14     1     2   ar
    15     2     3   ar
    16     3     4   ar
    17     4     5   ar
    18     5     7    1
    19     7     8   ar
    20     8     9   ar
    21     9    13    1
    22    13    14    1
    23    14    15    1
    24    15    16    1
    25    16    17    1
    26    16    18    1
    27     9    10   ar
    28    10    11    1
    29    10    12   ar
    30     5     6   ar
    31    29    30   ar
    32    30    31   ar
    33    31    22   ar
    34    31    26   ar
    35     6     1   ar
    36    12     7   ar
    37    18    14    1
    38    33    36    1
    39    20    21    1
    40    17    19    1
@<TRIPOS>MOLECULE
*****
 36 40 0 0 0
SMALL
GASTEIGER

@<TRIPOS>ATOM
      1 C         142.4382  144.1295  161.4892 C.ar    1  UNL1        0.2221
      2 N         143.9194  143.9050  161.4144 N.ar    1  UNL1       -0.2119
      3 C         144.5710  142.8941  162.3109 C.ar    1  UNL1        0.1050
      4 C         143.7413  142.1078  163.2822 C.ar    1  UNL1        0.0596
      5 C         142.2601  142.3324  163.3570 C.ar    1  UNL1        0.1682
      6 N         141.6085  143.3432  162.4605 N.ar    1  UNL1       -0.1944
      7 N         141.4305  141.5461  164.3283 N.ar    1  UNL1       -0.2112
      8 C         141.8923  141.0110  165.6513 C.ar    1  UNL1        0.1003
      9 C         140.7406  140.2910  166.2878 C.ar    1  UNL1        0.0283
     10 C         139.5669  140.3811  165.3580 C.ar    1  UNL1        0.0782
     11 C         138.2057  139.7979  165.5973 C.3     1  UNL1        0.0537
     12 N         139.9933  141.1568  164.1470 N.ar    1  UNL1       -0.1684
     13 C         140.7592  139.6020  167.6200 C.3     1  UNL1        0.1021
     14 N         140.6796  140.4081  168.8825 N.3     1  UNL1       -0.2647
     15 C         141.1141  141.7843  169.2914 C.3     1  UNL1        0.1034
     16 C         140.5669  141.5481  170.6679 C.3     1  UNL1        0.1423
     17 O         140.4873  142.3542  171.9304 O.3     1  UNL1       -0.3816
     18 C         140.1324  140.1719  170.2590 C.3     1  UNL1        0.1034
     19 H         140.0469  141.8328  172.6197 H       1  UNL1        0.2105
     20 N         141.7866  145.1403  160.5927 N.pl3   1  UNL1       -0.2825
     21 H         141.8068  146.0953  160.8312 H       1  UNL1        0.1551
     22 C         139.3517  146.0369  155.9354 C.ar    1  UNL1        0.1554
     23 N         138.7974  145.0487  154.9524 N.ar    1  UNL1       -0.1646
     24 N         139.0373  143.6710  155.4950 N.ar    1  UNL1       -0.2487
     25 C         138.6438  142.3827  154.8351 C.3     1  UNL1        0.1537
     26 C         139.7399  143.8077  156.8132 C.ar    1  UNL1        0.0796
     27 C         140.2279  142.7897  157.8008 C.ar    1  UNL1        0.0201
     28 C         140.9101  143.2339  159.0606 C.ar    1  UNL1        0.0162
     29 C         141.1044  144.6961  159.3328 C.ar    1  UNL1        0.0506
     30 C         140.6164  145.7142  158.3452 C.ar    1  UNL1        0.0179
     31 C         139.9342  145.2700  157.0854 C.ar    1  UNL1        0.0423
     32 C         138.5224  149.8565  156.6234 C.3     1  UNL1        0.1110
     33 N         138.5463  148.3635  156.7655 N.am    1  UNL1       -0.2979
     34 C         139.3277  147.5300  155.7933 C.2     1  UNL1        0.2654
     35 O         140.0849  148.1897  154.6792 O.2     1  UNL1       -0.2684
     36 H         138.0493  147.9305  157.4967 H       1  UNL1        0.1498
@<TRIPOS>BOND
     1    32    33    1
     2    33    34   am
     3    34    35    2
     4    34    22    1
     5    22    23   ar
     6    23    24   ar
     7    24    25    1
     8    24    26   ar
     9    26    27   ar
    10    27    28   ar
    11    28    29   ar
    12    29    20    1
    13    20     1    1
    14     1     2   ar
    15     2     3   ar
    16     3     4   ar
    17     4     5   ar
    18     5     7    1
    19     7     8   ar
    20     8     9   ar
    21     9    13    1
    22    13    14    1
    23    14    15    1
    24    15    16    1
    25    16    17    1
    26    16    18    1
    27     9    10   ar
    28    10    11    1
    29    10    12   ar
    30     5     6   ar
    31    29    30   ar
    32    30    31   ar
    33    31    22   ar
    34    31    26   ar
    35     6     1   ar
    36    12     7   ar
    37    18    14    1
    38    33    36    1
    39    20    21    1
    40    17    19    1
@<TRIPOS>MOLECULE
*****
 36 40 0 0 0
SMALL
GASTEIGER

@<TRIPOS>ATOM
      1 C         138.7808  143.4090  161.6946 C.ar    1  UNL1        0.2221
      2 N         138.8541  144.8428  162.1291 N.ar    1  UNL1       -0.2119
      3 C         138.9598  145.1802  163.5869 C.ar    1  UNL1        0.1050
      4 C         138.9922  144.0839  164.6101 C.ar    1  UNL1        0.0596
      5 C         138.9189  142.6501  164.1756 C.ar    1  UNL1        0.1682
      6 N         138.8132  142.3126  162.7179 N.ar    1  UNL1       -0.1944
      7 N         138.9513  141.5537  165.1987 N.ar    1  UNL1       -0.2112
      8 C         139.8832  141.4691  166.3711 C.ar    1  UNL1        0.1003
      9 C         139.5653  140.2126  167.1262 C.ar    1  UNL1        0.0283
     10 C         138.4370  139.5206  166.4204 C.ar    1  UNL1        0.0782
     11 C         137.8000  138.2269  166.8333 C.3     1  UNL1        0.0537
     12 N         138.0575  140.3495  165.2292 N.ar    1  UNL1       -0.1684
     13 C         140.2547  139.7323  168.3688 C.3     1  UNL1        0.1021
     14 N         140.9692  140.7090  169.2552 N.3     1  UNL1       -0.2647
     15 C         142.3506  141.2922  169.2941 C.3     1  UNL1        0.1034
     16 C         141.9796  142.0901  170.5088 C.3     1  UNL1        0.1423
     17 O         142.6941  143.0668  171.3952 O.3     1  UNL1       -0.3816
     18 C         140.5981  141.5069  170.4700 C.3     1  UNL1        0.1034
     19 H         142.0925  143.3699  172.0932 H       1  UNL1        0.2105
     20 N         138.6752  143.0715  160.2369 N.pl3   1  UNL1       -0.2825
     21 H         137.7909  142.9355  159.8260 H       1  UNL1        0.1551
     22 C         143.8262  141.8871  159.5383 C.ar    1  UNL1        0.1554
     23 N         144.6529  141.9630  158.2890 N.ar    1  UNL1       -0.1646
     24 N         143.7713  142.4533  157.1789 N.ar    1  UNL1       -0.2487
     25 C         144.1881  142.6771  155.7554 C.3     1  UNL1        0.1537
     26 C         142.3997  142.6804  157.7420 C.ar    1  UNL1        0.0796
     27 C         141.1243  143.1607  157.1154 C.ar    1  UNL1        0.0201
     28 C         139.8829  143.2910  157.9471 C.ar    1  UNL1        0.0162
     29 C         139.9167  142.9411  159.4053 C.ar    1  UNL1        0.0506
     30 C         141.1921  142.4609  160.0319 C.ar    1  UNL1        0.0179
     31 C         142.4336  142.3305  159.2003 C.ar    1  UNL1        0.0423
     32 C         145.6606  141.9092  163.0575 C.3     1  UNL1        0.1110
     33 N         145.1793  142.3509  161.7072 N.am    1  UNL1       -0.2979
     34 C         144.3074  141.4454  160.8886 C.2     1  UNL1        0.2654
     35 O         143.9170  140.0983  161.4203 O.2     1  UNL1       -0.2684
     36 H         145.4356  143.2350  161.3583 H       1  UNL1        0.1498
@<TRIPOS>BOND
     1    32    33    1
     2    33    34   am
     3    34    35    2
     4    34    22    1
     5    22    23   ar
     6    23    24   ar
     7    24    25    1
     8    24    26   ar
     9    26    27   ar
    10    27    28   ar
    11    28    29   ar
    12    29    20    1
    13    20     1    1
    14     1     2   ar
    15     2     3   ar
    16     3     4   ar
    17     4     5   ar
    18     5     7    1
    19     7     8   ar
    20     8     9   ar
    21     9    13    1
    22    13    14    1
    23    14    15    1
    24    15    16    1
    25    16    17    1
    26    16    18    1
    27     9    10   ar
    28    10    11    1
    29    10    12   ar
    30     5     6   ar
    31    29    30   ar
    32    30    31   ar
    33    31    22   ar
    34    31    26   ar
    35     6     1   ar
    36    12     7   ar
    37    18    14    1
    38    33    36    1
    39    20    21    1
    40    17    19    1
