@<TRIPOS>MOLECULE
*****
 25 27 0 0 0
SMALL
GASTEIGER

@<TRIPOS>ATOM
      1 C         141.3275  140.9031  167.2111 C.3     1  UNL1        0.0847
      2 N         141.5821  140.8789  168.6892 N.3     1  UNL1       -0.2676
      3 C         142.6085  139.9446  169.2581 C.3     1  UNL1        0.0896
      4 C         142.8631  139.9203  170.7361 C.3     1  UNL1        0.0862
      5 N         142.0914  140.8302  171.6452 N.3     1  UNL1       -0.2951
      6 C         141.0650  141.7645  171.0762 C.3     1  UNL1        0.0862
      7 C         140.8104  141.7888  169.5982 C.3     1  UNL1        0.0896
      8 H         142.7756  141.4072  172.1344 H       1  UNL1        0.1233
      9 C         140.4519  139.8593  166.5836 C.ar    1  UNL1       -0.0075
     10 C         140.9878  138.9947  165.4812 C.ar    1  UNL1       -0.0030
     11 C         140.1121  137.9508  164.8537 C.ar    1  UNL1       -0.0003
     12 C         138.7007  137.7716  165.3287 C.ar    1  UNL1       -0.0000
     13 C         138.1648  138.6362  166.4312 C.ar    1  UNL1       -0.0003
     14 C         139.0404  139.6800  167.0586 C.ar    1  UNL1       -0.0030
     15 C         141.9485  141.9713  166.3605 C.3     1  UNL1        0.0499
     16 C         141.5079  143.4824  164.2935 C.ar    1  UNL1        0.1403
     17 C         140.6364  144.4580  163.5597 C.ar    1  UNL1        0.0368
     18 C         139.3337  144.8982  164.1591 C.ar    1  UNL1        0.0031
     19 C         138.9027  144.3627  165.4923 C.ar    1  UNL1       -0.0001
     20 C         139.7742  143.3871  166.2261 C.ar    1  UNL1       -0.0012
     21 C         141.0769  142.9469  165.6267 C.ar    1  UNL1        0.0137
     22 O         142.8106  143.0421  163.6941 O.3     1  UNL1       -0.4240
     23 F         144.4657  144.8272  162.7863 F       1  UNL1       -0.1550
     24 C         144.0400  143.8831  163.8714 C.3     1  UNL1        0.5086
     25 F         144.8436  143.7800  165.1338 F       1  UNL1       -0.1550
@<TRIPOS>BOND
     1    23    24    1
     2    24    25    1
     3    24    22    1
     4    22    16    1
     5    16    17   ar
     6    17    18   ar
     7    18    19   ar
     8    19    20   ar
     9    20    21   ar
    10    21    15    1
    11    15     1    1
    12     1     9    1
    13     9    10   ar
    14    10    11   ar
    15    11    12   ar
    16    12    13   ar
    17    13    14   ar
    18     1     2    1
    19     2     3    1
    20     3     4    1
    21     4     5    1
    22     5     6    1
    23     6     7    1
    24    21    16   ar
    25    14     9   ar
    26     7     2    1
    27     5     8    1
@<TRIPOS>MOLECULE
*****
 25 27 0 0 0
SMALL
GASTEIGER

@<TRIPOS>ATOM
      1 C         140.5939  141.1375  167.4232 C.3     1  UNL1        0.0847
      2 N         141.1136  140.9888  168.8225 N.3     1  UNL1       -0.2676
      3 C         142.3297  140.1511  169.0858 C.3     1  UNL1        0.0896
      4 C         142.8495  140.0024  170.4849 C.3     1  UNL1        0.0862
      5 N         142.1531  140.6914  171.6208 N.3     1  UNL1       -0.2951
      6 C         140.9370  141.5291  171.3575 C.3     1  UNL1        0.0862
      7 C         140.4172  141.6778  169.9584 C.3     1  UNL1        0.0896
      8 H         142.8414  141.3018  172.0613 H       1  UNL1        0.1233
      9 C         140.0227  139.9508  166.7053 C.ar    1  UNL1       -0.0075
     10 C         138.6555  139.4461  167.0603 C.ar    1  UNL1       -0.0030
     11 C         138.0843  138.2594  166.3422 C.ar    1  UNL1       -0.0003
     12 C         138.8803  137.5774  165.2693 C.ar    1  UNL1       -0.0000
     13 C         140.2475  138.0821  164.9143 C.ar    1  UNL1       -0.0003
     14 C         140.8187  139.2688  165.6323 C.ar    1  UNL1       -0.0030
     15 C         140.6454  142.4729  166.7420 C.3     1  UNL1        0.0499
     16 C         141.4134  143.2720  164.3921 C.ar    1  UNL1        0.1403
     17 C         142.5133  143.5753  163.4185 C.ar    1  UNL1        0.0368
     18 C         143.9454  143.3829  163.8211 C.ar    1  UNL1        0.0031
     19 C         144.2775  142.8871  165.1973 C.ar    1  UNL1       -0.0001
     20 C         143.1775  142.5838  166.1709 C.ar    1  UNL1       -0.0012
     21 C         141.7455  142.7762  165.7684 C.ar    1  UNL1        0.0137
     22 O         139.9812  143.4644  163.9896 O.3     1  UNL1       -0.4240
     23 F         138.7902  145.3214  165.3618 F       1  UNL1       -0.1550
     24 C         139.3577  144.8266  164.0645 C.3     1  UNL1        0.5086
     25 F         139.3016  145.6940  162.8420 F       1  UNL1       -0.1550
@<TRIPOS>BOND
     1    23    24    1
     2    24    25    1
     3    24    22    1
     4    22    16    1
     5    16    17   ar
     6    17    18   ar
     7    18    19   ar
     8    19    20   ar
     9    20    21   ar
    10    21    15    1
    11    15     1    1
    12     1     9    1
    13     9    10   ar
    14    10    11   ar
    15    11    12   ar
    16    12    13   ar
    17    13    14   ar
    18     1     2    1
    19     2     3    1
    20     3     4    1
    21     4     5    1
    22     5     6    1
    23     6     7    1
    24    21    16   ar
    25    14     9   ar
    26     7     2    1
    27     5     8    1
@<TRIPOS>MOLECULE
*****
 25 27 0 0 0
SMALL
GASTEIGER

@<TRIPOS>ATOM
      1 C         140.5593  141.7699  166.4253 C.3     1  UNL1        0.0847
      2 N         140.2513  141.7266  167.8928 N.3     1  UNL1       -0.2676
      3 C         140.5186  142.9274  168.7510 C.3     1  UNL1        0.0896
      4 C         140.2106  142.8841  170.2184 C.3     1  UNL1        0.0862
      5 N         139.6353  141.6399  170.8275 N.3     1  UNL1       -0.2951
      6 C         139.3680  140.4391  169.9693 C.3     1  UNL1        0.0862
      7 C         139.6760  140.4824  168.5019 C.3     1  UNL1        0.0896
      8 H         138.7454  141.9035  171.2505 H       1  UNL1        0.1233
      9 C         139.6534  142.5153  165.4906 C.ar    1  UNL1       -0.0075
     10 C         138.4916  141.8128  164.8528 C.ar    1  UNL1       -0.0030
     11 C         137.5857  142.5582  163.9180 C.ar    1  UNL1       -0.0003
     12 C         137.8417  144.0061  163.6210 C.ar    1  UNL1       -0.0000
     13 C         139.0035  144.7086  164.2588 C.ar    1  UNL1       -0.0003
     14 C         139.9093  143.9632  165.1935 C.ar    1  UNL1       -0.0030
     15 C         141.7732  141.0679  165.8927 C.3     1  UNL1        0.0499
     16 C         142.5553  139.5124  163.9643 C.ar    1  UNL1        0.1403
     17 C         142.4032  138.2473  163.1730 C.ar    1  UNL1        0.0368
     18 C         141.3169  137.2724  163.5187 C.ar    1  UNL1        0.0031
     19 C         140.3826  137.5628  164.6557 C.ar    1  UNL1       -0.0001
     20 C         140.5347  138.8279  165.4471 C.ar    1  UNL1       -0.0012
     21 C         141.6210  139.8027  165.1014 C.ar    1  UNL1        0.0137
     22 O         143.6417  140.4873  163.6186 O.3     1  UNL1       -0.4240
     23 F         146.0822  141.3245  163.9237 F       1  UNL1       -0.1550
     24 C         145.0341  140.2721  164.1334 C.3     1  UNL1        0.5086
     25 F         145.3784  139.0046  164.8578 F       1  UNL1       -0.1550
@<TRIPOS>BOND
     1    23    24    1
     2    24    25    1
     3    24    22    1
     4    22    16    1
     5    16    17   ar
     6    17    18   ar
     7    18    19   ar
     8    19    20   ar
     9    20    21   ar
    10    21    15    1
    11    15     1    1
    12     1     9    1
    13     9    10   ar
    14    10    11   ar
    15    11    12   ar
    16    12    13   ar
    17    13    14   ar
    18     1     2    1
    19     2     3    1
    20     3     4    1
    21     4     5    1
    22     5     6    1
    23     6     7    1
    24    21    16   ar
    25    14     9   ar
    26     7     2    1
    27     5     8    1
@<TRIPOS>MOLECULE
*****
 25 27 0 0 0
SMALL
GASTEIGER

@<TRIPOS>ATOM
      1 C         140.8905  142.4248  165.9034 C.3     1  UNL1        0.0847
      2 N         141.3612  143.3896  164.8557 N.3     1  UNL1       -0.2676
      3 C         142.8060  143.4138  164.4533 C.3     1  UNL1        0.0896
      4 C         143.2767  144.3785  163.4056 C.3     1  UNL1        0.0862
      5 N         142.3026  145.3190  162.7603 N.3     1  UNL1       -0.2951
      6 C         140.8578  145.2948  163.1627 C.3     1  UNL1        0.0862
      7 C         140.3871  144.3301  164.2104 C.3     1  UNL1        0.0896
      8 H         142.3323  145.1318  161.7581 H       1  UNL1        0.1233
      9 C         141.3966  142.5401  167.3107 C.ar    1  UNL1       -0.0075
     10 C         140.5018  143.0777  168.3879 C.ar    1  UNL1       -0.0030
     11 C         141.0080  143.1929  169.7952 C.ar    1  UNL1       -0.0003
     12 C         142.4089  142.7707  170.1254 C.ar    1  UNL1       -0.0000
     13 C         143.3037  142.2331  169.0482 C.ar    1  UNL1       -0.0003
     14 C         142.7976  142.1178  167.6409 C.ar    1  UNL1       -0.0030
     15 C         139.9137  141.3447  165.5438 C.3     1  UNL1        0.0499
     16 C         139.4926  138.7980  165.2483 C.ar    1  UNL1        0.1403
     17 C         139.9887  137.4351  164.8660 C.ar    1  UNL1        0.0368
     18 C         141.4021  137.2558  164.3968 C.ar    1  UNL1        0.0031
     19 C         142.3194  138.4394  164.3100 C.ar    1  UNL1       -0.0001
     20 C         141.8233  139.8024  164.6923 C.ar    1  UNL1       -0.0012
     21 C         140.4099  139.9817  165.1614 C.ar    1  UNL1        0.0137
     22 O         138.0791  138.9774  165.7174 O.3     1  UNL1       -0.4240
     23 F         138.4170  139.4685  168.2462 F       1  UNL1       -0.1550
     24 C         137.7254  138.7124  167.1508 C.3     1  UNL1        0.5086
     25 F         136.6799  137.6911  167.4888 F       1  UNL1       -0.1550
@<TRIPOS>BOND
     1    23    24    1
     2    24    25    1
     3    24    22    1
     4    22    16    1
     5    16    17   ar
     6    17    18   ar
     7    18    19   ar
     8    19    20   ar
     9    20    21   ar
    10    21    15    1
    11    15     1    1
    12     1     9    1
    13     9    10   ar
    14    10    11   ar
    15    11    12   ar
    16    12    13   ar
    17    13    14   ar
    18     1     2    1
    19     2     3    1
    20     3     4    1
    21     4     5    1
    22     5     6    1
    23     6     7    1
    24    21    16   ar
    25    14     9   ar
    26     7     2    1
    27     5     8    1
@<TRIPOS>MOLECULE
*****
 25 27 0 0 0
SMALL
GASTEIGER

@<TRIPOS>ATOM
      1 C         142.1283  140.9486  166.6211 C.3     1  UNL1        0.0847
      2 N         142.3210  141.0910  168.1019 N.3     1  UNL1       -0.2676
      3 C         142.5639  139.8757  168.9469 C.3     1  UNL1        0.0896
      4 C         142.7566  140.0180  170.4276 C.3     1  UNL1        0.0862
      5 N         142.7065  141.3757  171.0633 N.3     1  UNL1       -0.2951
      6 C         142.4636  142.5910  170.2183 C.3     1  UNL1        0.0862
      7 C         142.2709  142.4487  168.7376 C.3     1  UNL1        0.0896
      8 H         143.6027  141.5157  171.5297 H       1  UNL1        0.1233
      9 C         143.2811  141.1781  165.6892 C.ar    1  UNL1       -0.0075
     10 C         143.7865  142.5700  165.4500 C.ar    1  UNL1       -0.0030
     11 C         144.9393  142.7995  164.5181 C.ar    1  UNL1       -0.0003
     12 C         145.5867  141.6371  163.8254 C.ar    1  UNL1       -0.0000
     13 C         145.0813  140.2452  164.0647 C.ar    1  UNL1       -0.0003
     14 C         143.9285  140.0157  164.9966 C.ar    1  UNL1       -0.0030
     15 C         140.7828  140.5766  166.0722 C.3     1  UNL1        0.0499
     16 C         138.6486  141.2738  164.7648 C.ar    1  UNL1        0.1403
     17 C         137.7185  142.3421  164.2713 C.ar    1  UNL1        0.0368
     18 C         137.9925  143.7816  164.5917 C.ar    1  UNL1        0.0031
     19 C         139.1965  144.1528  165.4056 C.ar    1  UNL1       -0.0001
     20 C         140.1266  143.0845  165.8991 C.ar    1  UNL1       -0.0012
     21 C         139.8527  141.6450  165.5787 C.ar    1  UNL1        0.0137
     22 O         138.3747  139.8342  164.4444 O.3     1  UNL1       -0.4240
     23 F         139.0759  137.5405  165.4431 F       1  UNL1       -0.1550
     24 C         138.3017  138.8210  165.5481 C.3     1  UNL1        0.5086
     25 F         137.4545  139.0883  166.7567 F       1  UNL1       -0.1550
@<TRIPOS>BOND
     1    23    24    1
     2    24    25    1
     3    24    22    1
     4    22    16    1
     5    16    17   ar
     6    17    18   ar
     7    18    19   ar
     8    19    20   ar
     9    20    21   ar
    10    21    15    1
    11    15     1    1
    12     1     9    1
    13     9    10   ar
    14    10    11   ar
    15    11    12   ar
    16    12    13   ar
    17    13    14   ar
    18     1     2    1
    19     2     3    1
    20     3     4    1
    21     4     5    1
    22     5     6    1
    23     6     7    1
    24    21    16   ar
    25    14     9   ar
    26     7     2    1
    27     5     8    1
@<TRIPOS>MOLECULE
*****
 25 27 0 0 0
SMALL
GASTEIGER

@<TRIPOS>ATOM
      1 C         141.2610  142.0922  167.1752 C.3     1  UNL1        0.0847
      2 N         140.9923  141.7111  168.6009 N.3     1  UNL1       -0.2676
      3 C         141.1258  140.2809  169.0329 C.3     1  UNL1        0.0896
      4 C         140.8571  139.8998  170.4585 C.3     1  UNL1        0.0862
      5 N         140.4550  140.9489  171.4523 N.3     1  UNL1       -0.2951
      6 C         140.3216  142.3792  171.0203 C.3     1  UNL1        0.0862
      7 C         140.5902  142.7603  169.5947 C.3     1  UNL1        0.0896
      8 H         141.1507  140.9303  172.1980 H       1  UNL1        0.1233
      9 C         140.1206  142.2529  166.2142 C.ar    1  UNL1       -0.0075
     10 C         139.3631  141.0478  165.7409 C.ar    1  UNL1       -0.0030
     11 C         138.2227  141.2086  164.7798 C.ar    1  UNL1       -0.0003
     12 C         137.8397  142.5744  164.2921 C.ar    1  UNL1       -0.0000
     13 C         138.5972  143.7795  164.7654 C.ar    1  UNL1       -0.0003
     14 C         139.7376  143.6188  165.7264 C.ar    1  UNL1       -0.0030
     15 C         142.6701  142.3125  166.7106 C.3     1  UNL1        0.0499
     16 C         144.3327  141.8078  164.7789 C.ar    1  UNL1        0.1403
     17 C         144.9739  140.8305  163.8390 C.ar    1  UNL1        0.0368
     18 C         144.5939  139.3804  163.8907 C.ar    1  UNL1        0.0031
     19 C         143.5726  138.9076  164.8824 C.ar    1  UNL1       -0.0001
     20 C         142.9313  139.8850  165.8224 C.ar    1  UNL1       -0.0012
     21 C         143.3114  141.3351  165.7706 C.ar    1  UNL1        0.0137
     22 O         144.7127  143.2580  164.7271 O.3     1  UNL1       -0.4240
     23 F         142.6034  144.7181  164.3157 F       1  UNL1       -0.1550
     24 C         143.9378  144.2059  163.8606 C.3     1  UNL1        0.5086
     25 F         144.4972  144.6417  162.5387 F       1  UNL1       -0.1550
@<TRIPOS>BOND
     1    23    24    1
     2    24    25    1
     3    24    22    1
     4    22    16    1
     5    16    17   ar
     6    17    18   ar
     7    18    19   ar
     8    19    20   ar
     9    20    21   ar
    10    21    15    1
    11    15     1    1
    12     1     9    1
    13     9    10   ar
    14    10    11   ar
    15    11    12   ar
    16    12    13   ar
    17    13    14   ar
    18     1     2    1
    19     2     3    1
    20     3     4    1
    21     4     5    1
    22     5     6    1
    23     6     7    1
    24    21    16   ar
    25    14     9   ar
    26     7     2    1
    27     5     8    1
@<TRIPOS>MOLECULE
*****
 25 27 0 0 0
SMALL
GASTEIGER

@<TRIPOS>ATOM
      1 C         140.1852  141.2264  166.5742 C.3     1  UNL1        0.0847
      2 N         140.2087  141.3442  168.0694 N.3     1  UNL1       -0.2676
      3 C         139.9139  140.1450  168.9209 C.3     1  UNL1        0.0896
      4 C         139.9374  140.2628  170.4161 C.3     1  UNL1        0.0862
      5 N         140.2557  141.5797  171.0597 N.3     1  UNL1       -0.2951
      6 C         140.5505  142.7789  170.2082 C.3     1  UNL1        0.0862
      7 C         140.5270  142.6611  168.7131 C.3     1  UNL1        0.0896
      8 H         141.0741  141.4290  171.6495 H       1  UNL1        0.1233
      9 C         140.4420  139.9001  165.9222 C.ar    1  UNL1       -0.0075
     10 C         141.8413  139.3677  165.8309 C.ar    1  UNL1       -0.0030
     11 C         142.0980  138.0413  165.1789 C.ar    1  UNL1       -0.0003
     12 C         140.9554  137.2475  164.6183 C.ar    1  UNL1       -0.0000
     13 C         139.5560  137.7800  164.7097 C.ar    1  UNL1       -0.0003
     14 C         139.2993  139.1063  165.3616 C.ar    1  UNL1       -0.0030
     15 C         139.9050  142.4349  165.7310 C.3     1  UNL1        0.0499
     16 C         140.7648  144.4851  164.3864 C.ar    1  UNL1        0.1403
     17 C         141.9006  145.2739  163.8054 C.ar    1  UNL1        0.0368
     18 C         143.3125  144.8015  163.9880 C.ar    1  UNL1        0.0031
     19 C         143.5886  143.5403  164.7515 C.ar    1  UNL1       -0.0001
     20 C         142.4528  142.7514  165.3325 C.ar    1  UNL1       -0.0012
     21 C         141.0409  143.2238  165.1499 C.ar    1  UNL1        0.0137
     22 O         139.3528  144.9575  164.2039 O.3     1  UNL1       -0.4240
     23 F         139.1030  146.0457  161.8581 F       1  UNL1       -0.1550
     24 C         138.7368  144.9693  162.8363 C.3     1  UNL1        0.5086
     25 F         137.7545  143.9045  162.4470 F       1  UNL1       -0.1550
@<TRIPOS>BOND
     1    23    24    1
     2    24    25    1
     3    24    22    1
     4    22    16    1
     5    16    17   ar
     6    17    18   ar
     7    18    19   ar
     8    19    20   ar
     9    20    21   ar
    10    21    15    1
    11    15     1    1
    12     1     9    1
    13     9    10   ar
    14    10    11   ar
    15    11    12   ar
    16    12    13   ar
    17    13    14   ar
    18     1     2    1
    19     2     3    1
    20     3     4    1
    21     4     5    1
    22     5     6    1
    23     6     7    1
    24    21    16   ar
    25    14     9   ar
    26     7     2    1
    27     5     8    1
@<TRIPOS>MOLECULE
*****
 25 27 0 0 0
SMALL
GASTEIGER

@<TRIPOS>ATOM
      1 C         140.5944  140.2198  167.4733 C.3     1  UNL1        0.0847
      2 N         140.7702  140.8337  168.8306 N.3     1  UNL1       -0.2676
      3 C         140.0446  142.0989  169.1813 C.3     1  UNL1        0.0896
      4 C         140.2204  142.7128  170.5385 C.3     1  UNL1        0.0862
      5 N         141.1219  142.0616  171.5451 N.3     1  UNL1       -0.2951
      6 C         141.8475  140.7964  171.1945 C.3     1  UNL1        0.0862
      7 C         141.6717  140.1825  169.8372 C.3     1  UNL1        0.0896
      8 H         140.5490  141.8553  172.3635 H       1  UNL1        0.1233
      9 C         141.7556  140.1478  166.5266 C.ar    1  UNL1       -0.0075
     10 C         142.0845  141.3214  165.6523 C.ar    1  UNL1       -0.0030
     11 C         143.2458  141.2493  164.7056 C.ar    1  UNL1       -0.0003
     12 C         144.0782  140.0035  164.6332 C.ar    1  UNL1       -0.0000
     13 C         143.7493  138.8299  165.5075 C.ar    1  UNL1       -0.0003
     14 C         142.5880  138.9020  166.4542 C.ar    1  UNL1       -0.0030
     15 C         139.2573  139.6781  167.0628 C.3     1  UNL1        0.0499
     16 C         138.4863  140.3817  164.6835 C.ar    1  UNL1        0.1403
     17 C         138.2259  140.0365  163.2473 C.ar    1  UNL1        0.0368
     18 C         138.4760  138.6423  162.7539 C.ar    1  UNL1        0.0031
     19 C         138.9865  137.5933  163.6967 C.ar    1  UNL1       -0.0001
     20 C         139.2469  137.9385  165.1330 C.ar    1  UNL1       -0.0012
     21 C         138.9968  139.3327  165.6264 C.ar    1  UNL1        0.0137
     22 O         138.2362  141.7760  165.1770 O.3     1  UNL1       -0.4240
     23 F         139.9538  142.9481  163.6195 F       1  UNL1       -0.1550
     24 C         138.6363  142.9522  164.3364 C.3     1  UNL1        0.5086
     25 F         137.7187  144.1324  164.2128 F       1  UNL1       -0.1550
@<TRIPOS>BOND
     1    23    24    1
     2    24    25    1
     3    24    22    1
     4    22    16    1
     5    16    17   ar
     6    17    18   ar
     7    18    19   ar
     8    19    20   ar
     9    20    21   ar
    10    21    15    1
    11    15     1    1
    12     1     9    1
    13     9    10   ar
    14    10    11   ar
    15    11    12   ar
    16    12    13   ar
    17    13    14   ar
    18     1     2    1
    19     2     3    1
    20     3     4    1
    21     4     5    1
    22     5     6    1
    23     6     7    1
    24    21    16   ar
    25    14     9   ar
    26     7     2    1
    27     5     8    1
@<TRIPOS>MOLECULE
*****
 25 27 0 0 0
SMALL
GASTEIGER

@<TRIPOS>ATOM
      1 C         141.2125  140.9702  166.4179 C.3     1  UNL1        0.0847
      2 N         140.5145  139.9712  165.5433 N.3     1  UNL1       -0.2676
      3 C         139.2308  140.3397  164.8605 C.3     1  UNL1        0.0896
      4 C         138.5328  139.3407  163.9860 C.3     1  UNL1        0.0862
      5 N         139.1185  137.9732  163.7943 N.3     1  UNL1       -0.2951
      6 C         140.4023  137.6047  164.4771 C.3     1  UNL1        0.0862
      7 C         141.1002  138.6037  165.3516 C.3     1  UNL1        0.0896
      8 H         139.2738  137.8572  162.7929 H       1  UNL1        0.1233
      9 C         140.6418  141.3199  167.7603 C.ar    1  UNL1       -0.0075
     10 C         140.8953  142.6742  168.3533 C.ar    1  UNL1       -0.0030
     11 C         140.3245  143.0239  169.6957 C.ar    1  UNL1       -0.0003
     12 C         139.5004  142.0193  170.4451 C.ar    1  UNL1       -0.0000
     13 C         139.2470  140.6650  169.8521 C.ar    1  UNL1       -0.0003
     14 C         139.8176  140.3153  168.5097 C.ar    1  UNL1       -0.0030
     15 C         142.4811  141.6196  165.9500 C.3     1  UNL1        0.0499
     16 C         143.6817  143.4348  164.5309 C.ar    1  UNL1        0.1403
     17 C         143.6234  144.6768  163.6920 C.ar    1  UNL1        0.0368
     18 C         142.3060  145.3458  163.4332 C.ar    1  UNL1        0.0031
     19 C         141.0470  144.7728  164.0133 C.ar    1  UNL1       -0.0001
     20 C         141.1054  143.5307  164.8522 C.ar    1  UNL1       -0.0012
     21 C         142.4227  142.8617  165.1110 C.ar    1  UNL1        0.0137
     22 O         144.9991  142.7657  164.7897 O.3     1  UNL1       -0.4240
     23 F         145.6594  140.2857  164.3853 F       1  UNL1       -0.1550
     24 C         145.4841  141.6837  163.8709 C.3     1  UNL1        0.5086
     25 F         145.7937  141.9999  162.4376 F       1  UNL1       -0.1550
@<TRIPOS>BOND
     1    23    24    1
     2    24    25    1
     3    24    22    1
     4    22    16    1
     5    16    17   ar
     6    17    18   ar
     7    18    19   ar
     8    19    20   ar
     9    20    21   ar
    10    21    15    1
    11    15     1    1
    12     1     9    1
    13     9    10   ar
    14    10    11   ar
    15    11    12   ar
    16    12    13   ar
    17    13    14   ar
    18     1     2    1
    19     2     3    1
    20     3     4    1
    21     4     5    1
    22     5     6    1
    23     6     7    1
    24    21    16   ar
    25    14     9   ar
    26     7     2    1
    27     5     8    1
