@<TRIPOS>MOLECULE
*****
 36 39 0 0 0
SMALL
GASTEIGER

@<TRIPOS>ATOM
      1 N         144.5309  140.9394  163.5044 N.3     1  UNL1       -0.2684
      2 C         144.3262  142.3261  164.0384 C.3     1  UNL1        0.1035
      3 C         143.6285  143.3567  163.2012 C.3     1  UNL1        0.1470
      4 C         142.9307  144.3874  162.3639 C.3     1  UNL1        0.1035
      5 N         142.4377  144.0313  160.9928 N.3     1  UNL1       -0.2673
      6 C         142.6424  142.6445  160.4588 C.3     1  UNL1        0.1035
      7 C         143.3401  141.6139  161.2960 C.3     1  UNL1        0.1470
      8 C         144.0379  140.5833  162.1332 C.3     1  UNL1        0.1035
      9 O         143.1354  143.0006  161.8300 O.3     1  UNL1       -0.3530
     10 C         145.2287  139.9087  164.3416 C.3     1  UNL1        0.0761
     11 C         144.4442  138.7927  164.9653 C.3     1  UNL1        0.0646
     12 C         142.9755  138.9597  165.2205 C.3     1  UNL1        0.2068
     13 O         142.4348  138.8149  166.6121 O.3     1  UNL1       -0.4754
     14 C         140.9708  142.4369  168.8454 C.ar    1  UNL1        0.0686
     15 C         140.2978  141.1110  169.0433 C.ar    1  UNL1        0.0134
     16 C         140.7858  139.9037  168.2989 C.ar    1  UNL1        0.0376
     17 C         141.9468  140.0222  167.3565 C.ar    1  UNL1        0.1386
     18 C         142.6198  141.3481  167.1586 C.ar    1  UNL1        0.0376
     19 C         142.1318  142.5554  167.9030 C.ar    1  UNL1        0.0134
     20 N         139.9948  144.8516  170.3342 N.1     1  UNL1       -0.1908
     21 C         140.4828  143.6442  169.5898 C.1     1  UNL1        0.1004
     22 C         141.7399  145.0619  160.1555 C.3     1  UNL1        0.0913
     23 C         140.2416  145.0835  160.0871 C.3     1  UNL1        0.1087
     24 N         139.4366  145.2874  161.3363 N.3     1  UNL1       -0.1780
     25 H         138.5305  145.6549  161.0460 H       1  UNL1        0.1488
     26 S         139.1619  144.1290  162.2488 S.O2    1  UNL1        0.0603
     27 O         139.6122  144.9470  163.4227 O.2     1  UNL1       -0.1530
     28 O         138.7115  143.3111  161.0749 O.2     1  UNL1       -0.1530
     29 C         138.8871  142.9706  163.1613 C.ar    1  UNL1        0.1220
     30 C         139.5350  142.9104  164.5128 C.ar    1  UNL1        0.0206
     31 C         139.2603  141.7520  165.4253 C.ar    1  UNL1        0.0116
     32 C         138.3376  140.6539  164.9863 C.ar    1  UNL1        0.0685
     33 C         137.6897  140.7142  163.6348 C.ar    1  UNL1        0.0116
     34 C         137.9644  141.8725  162.7223 C.ar    1  UNL1        0.0206
     35 C         138.0628  139.4955  165.8988 C.1     1  UNL1        0.1004
     36 N         137.7881  138.3371  166.8112 N.1     1  UNL1       -0.1908
@<TRIPOS>BOND
     1    20    21    3
     2    21    14    1
     3    14    15   ar
     4    15    16   ar
     5    16    17   ar
     6    17    13    1
     7    13    12    1
     8    12    11    1
     9    11    10    1
    10    10     1    1
    11     1     2    1
    12     2     3    1
    13     3     4    1
    14     4     5    1
    15     5    22    1
    16    22    23    1
    17    23    24    1
    18    24    26    1
    19    26    27    2
    20    26    28    2
    21    26    29    1
    22    29    30   ar
    23    30    31   ar
    24    31    32   ar
    25    32    35    1
    26    35    36    3
    27    32    33   ar
    28    33    34   ar
    29     5     6    1
    30     6     7    1
    31     7     8    1
    32     7     9    1
    33    17    18   ar
    34    18    19   ar
    35    19    14   ar
    36     8     1    1
    37     9     3    1
    38    34    29   ar
    39    24    25    1
@<TRIPOS>MOLECULE
*****
 36 39 0 0 0
SMALL
GASTEIGER

@<TRIPOS>ATOM
      1 N         140.0263  144.1876  162.3427 N.3     1  UNL1       -0.2684
      2 C         141.5140  144.1829  162.5343 C.3     1  UNL1        0.1035
      3 C         142.3691  143.2380  161.7432 C.3     1  UNL1        0.1470
      4 C         143.2242  142.2931  160.9521 C.3     1  UNL1        0.1035
      5 N         142.5917  141.3528  159.9694 N.3     1  UNL1       -0.2673
      6 C         141.1039  141.3575  159.7778 C.3     1  UNL1        0.1035
      7 C         140.2488  142.3024  160.5689 C.3     1  UNL1        0.1470
      8 C         139.3937  143.2473  161.3600 C.3     1  UNL1        0.1035
      9 O         141.7365  142.2977  160.7605 O.3     1  UNL1       -0.3530
     10 C         139.1711  145.1325  163.1339 C.3     1  UNL1        0.0761
     11 C         138.7751  144.7882  164.5391 C.3     1  UNL1        0.0646
     12 C         139.0878  143.4306  165.0952 C.3     1  UNL1        0.2068
     13 O         139.9847  143.2981  166.2901 O.3     1  UNL1       -0.4754
     14 C         142.6404  139.6909  166.7208 C.ar    1  UNL1        0.0686
     15 C         141.4468  139.8545  167.6144 C.ar    1  UNL1        0.0134
     16 C         140.5616  141.0568  167.4709 C.ar    1  UNL1        0.0376
     17 C         140.8699  142.0957  166.4337 C.ar    1  UNL1        0.1386
     18 C         142.0635  141.9321  165.5401 C.ar    1  UNL1        0.0376
     19 C         142.9488  140.7297  165.6836 C.ar    1  UNL1        0.0134
     20 N         144.4109  137.2861  167.0079 N.1     1  UNL1       -0.1908
     21 C         143.5256  138.4885  166.8643 C.1     1  UNL1        0.1004
     22 C         143.4467  140.4079  159.1783 C.3     1  UNL1        0.0913
     23 C         143.3603  138.9311  159.4267 C.3     1  UNL1        0.1087
     24 N         143.6521  138.3818  160.7916 N.3     1  UNL1       -0.1780
     25 H         144.4373  138.9168  161.1626 H       1  UNL1        0.1488
     26 S         142.5859  138.3893  161.8467 S.O2    1  UNL1        0.0603
     27 O         141.7049  137.5576  160.9623 O.2     1  UNL1       -0.1530
     28 O         143.4669  139.2209  162.7310 O.2     1  UNL1       -0.1530
     29 C         141.5197  138.3968  162.9018 C.ar    1  UNL1        0.1220
     30 C         141.3936  137.2403  163.8488 C.ar    1  UNL1        0.0206
     31 C         140.3275  137.2478  164.9039 C.ar    1  UNL1        0.0116
     32 C         139.3875  138.4117  165.0120 C.ar    1  UNL1        0.0685
     33 C         139.5136  139.5681  164.0650 C.ar    1  UNL1        0.0116
     34 C         140.5797  139.5607  163.0099 C.ar    1  UNL1        0.0206
     35 C         138.3213  138.4192  166.0671 C.1     1  UNL1        0.1004
     36 N         137.2551  138.4267  167.1222 N.1     1  UNL1       -0.1908
@<TRIPOS>BOND
     1    20    21    3
     2    21    14    1
     3    14    15   ar
     4    15    16   ar
     5    16    17   ar
     6    17    13    1
     7    13    12    1
     8    12    11    1
     9    11    10    1
    10    10     1    1
    11     1     2    1
    12     2     3    1
    13     3     4    1
    14     4     5    1
    15     5    22    1
    16    22    23    1
    17    23    24    1
    18    24    26    1
    19    26    27    2
    20    26    28    2
    21    26    29    1
    22    29    30   ar
    23    30    31   ar
    24    31    32   ar
    25    32    35    1
    26    35    36    3
    27    32    33   ar
    28    33    34   ar
    29     5     6    1
    30     6     7    1
    31     7     8    1
    32     7     9    1
    33    17    18   ar
    34    18    19   ar
    35    19    14   ar
    36     8     1    1
    37     9     3    1
    38    34    29   ar
    39    24    25    1
@<TRIPOS>MOLECULE
*****
 36 39 0 0 0
SMALL
GASTEIGER

@<TRIPOS>ATOM
      1 N         144.4515  140.3955  162.7437 N.3     1  UNL1       -0.2684
      2 C         143.8573  139.0332  162.9460 C.3     1  UNL1        0.1035
      3 C         142.7348  138.5666  162.0672 C.3     1  UNL1        0.1470
      4 C         141.6123  138.0999  161.1884 C.3     1  UNL1        0.1035
      5 N         141.0841  138.9956  160.1073 N.3     1  UNL1       -0.2673
      6 C         141.6784  140.3580  159.9050 C.3     1  UNL1        0.1035
      7 C         142.8009  140.8246  160.7838 C.3     1  UNL1        0.1470
      8 C         143.9233  141.2912  161.6626 C.3     1  UNL1        0.1035
      9 O         142.2066  139.4623  160.9861 O.3     1  UNL1       -0.3530
     10 C         145.5741  140.8622  163.6225 C.3     1  UNL1        0.0761
     11 C         145.6301  142.2923  164.0716 C.3     1  UNL1        0.0646
     12 C         144.5798  142.8292  164.9982 C.3     1  UNL1        0.2068
     13 O         143.3095  142.0620  165.2170 O.3     1  UNL1       -0.4754
     14 C         140.8366  142.8082  168.9018 C.ar    1  UNL1        0.0686
     15 C         140.2172  142.9450  167.5425 C.ar    1  UNL1        0.0134
     16 C         141.0415  142.6963  166.3142 C.ar    1  UNL1        0.0376
     17 C         142.4853  142.3107  166.4452 C.ar    1  UNL1        0.1386
     18 C         143.1046  142.1739  167.8046 C.ar    1  UNL1        0.0376
     19 C         142.2802  142.4227  169.0328 C.ar    1  UNL1        0.0134
     20 N         139.1880  143.3058  171.3583 N.1     1  UNL1       -0.1908
     21 C         140.0123  143.0570  170.1300 C.1     1  UNL1        0.1004
     22 C         139.9617  138.5290  159.2285 C.3     1  UNL1        0.0913
     23 C         138.8757  139.4834  158.8285 C.3     1  UNL1        0.1087
     24 N         137.7339  139.7544  159.7627 N.3     1  UNL1       -0.1780
     25 H         137.0150  139.0603  159.5581 H       1  UNL1        0.1488
     26 S         137.9551  139.7246  161.2459 S.O2    1  UNL1        0.0603
     27 O         137.2940  138.3800  161.3175 O.2     1  UNL1       -0.1530
     28 O         138.6161  141.0691  161.1744 O.2     1  UNL1       -0.1530
     29 C         138.1763  139.6948  162.7293 C.ar    1  UNL1        0.1220
     30 C         137.8425  140.8972  163.5616 C.ar    1  UNL1        0.0206
     31 C         138.0637  140.8675  165.0449 C.ar    1  UNL1        0.0116
     32 C         138.6187  139.6354  165.6958 C.ar    1  UNL1        0.0685
     33 C         138.9525  138.4330  164.8635 C.ar    1  UNL1        0.0116
     34 C         138.7313  138.4627  163.3802 C.ar    1  UNL1        0.0206
     35 C         138.8399  139.6056  167.1792 C.1     1  UNL1        0.1004
     36 N         139.0612  139.5759  168.6624 N.1     1  UNL1       -0.1908
@<TRIPOS>BOND
     1    20    21    3
     2    21    14    1
     3    14    15   ar
     4    15    16   ar
     5    16    17   ar
     6    17    13    1
     7    13    12    1
     8    12    11    1
     9    11    10    1
    10    10     1    1
    11     1     2    1
    12     2     3    1
    13     3     4    1
    14     4     5    1
    15     5    22    1
    16    22    23    1
    17    23    24    1
    18    24    26    1
    19    26    27    2
    20    26    28    2
    21    26    29    1
    22    29    30   ar
    23    30    31   ar
    24    31    32   ar
    25    32    35    1
    26    35    36    3
    27    32    33   ar
    28    33    34   ar
    29     5     6    1
    30     6     7    1
    31     7     8    1
    32     7     9    1
    33    17    18   ar
    34    18    19   ar
    35    19    14   ar
    36     8     1    1
    37     9     3    1
    38    34    29   ar
    39    24    25    1
@<TRIPOS>MOLECULE
*****
 36 39 0 0 0
SMALL
GASTEIGER

@<TRIPOS>ATOM
      1 N         144.4904  141.4690  161.9173 N.3     1  UNL1       -0.2684
      2 C         144.1102  140.0199  161.8422 C.3     1  UNL1        0.1035
      3 C         143.0838  139.5644  160.8477 C.3     1  UNL1        0.1470
      4 C         142.0574  139.1089  159.8532 C.3     1  UNL1        0.1035
      5 N         141.4112  140.1024  158.9338 N.3     1  UNL1       -0.2673
      6 C         141.7915  141.5515  159.0089 C.3     1  UNL1        0.1035
      7 C         142.8179  142.0070  160.0034 C.3     1  UNL1        0.1470
      8 C         143.8442  142.4625  160.9979 C.3     1  UNL1        0.1035
      9 O         142.4377  140.5580  159.9283 O.3     1  UNL1       -0.3530
     10 C         145.5168  141.9245  162.9118 C.3     1  UNL1        0.0761
     11 C         145.1419  142.0883  164.3549 C.3     1  UNL1        0.0646
     12 C         144.2863  143.2444  164.7810 C.3     1  UNL1        0.2068
     13 O         142.8771  143.3591  164.2800 O.3     1  UNL1       -0.4754
     14 C         139.7275  140.4999  165.7478 C.ar    1  UNL1        0.0686
     15 C         140.3879  140.2714  164.4205 C.ar    1  UNL1        0.0134
     16 C         141.4377  141.2245  163.9312 C.ar    1  UNL1        0.0376
     17 C         141.8272  142.4061  164.7693 C.ar    1  UNL1        0.1386
     18 C         141.1669  142.6345  166.0966 C.ar    1  UNL1        0.0376
     19 C         140.1169  141.6814  166.5858 C.ar    1  UNL1        0.0134
     20 N         137.6277  138.5937  166.7263 N.1     1  UNL1       -0.1908
     21 C         138.6776  139.5468  166.2370 C.1     1  UNL1        0.1004
     22 C         140.3849  139.6470  157.9393 C.3     1  UNL1        0.0913
     23 C         138.9724  140.1420  158.0390 C.3     1  UNL1        0.1087
     24 N         138.1542  139.8345  159.2580 N.3     1  UNL1       -0.1780
     25 H         138.4739  138.9309  159.6070 H       1  UNL1        0.1488
     26 S         138.1633  140.7771  160.4248 S.O2    1  UNL1        0.0603
     27 O         138.3350  141.9355  159.4875 O.2     1  UNL1       -0.1530
     28 O         137.9916  139.6186  161.3620 O.2     1  UNL1       -0.1530
     29 C         138.1724  141.7197  161.5916 C.ar    1  UNL1        0.1220
     30 C         139.0139  142.9606  161.5467 C.ar    1  UNL1        0.0206
     31 C         139.0230  143.9033  162.7135 C.ar    1  UNL1        0.0116
     32 C         138.1906  143.6050  163.9251 C.ar    1  UNL1        0.0685
     33 C         137.3491  142.3640  163.9700 C.ar    1  UNL1        0.0116
     34 C         137.3400  141.4214  162.8032 C.ar    1  UNL1        0.0206
     35 C         138.1996  144.5476  165.0919 C.1     1  UNL1        0.1004
     36 N         138.2087  145.4902  166.2587 N.1     1  UNL1       -0.1908
@<TRIPOS>BOND
     1    20    21    3
     2    21    14    1
     3    14    15   ar
     4    15    16   ar
     5    16    17   ar
     6    17    13    1
     7    13    12    1
     8    12    11    1
     9    11    10    1
    10    10     1    1
    11     1     2    1
    12     2     3    1
    13     3     4    1
    14     4     5    1
    15     5    22    1
    16    22    23    1
    17    23    24    1
    18    24    26    1
    19    26    27    2
    20    26    28    2
    21    26    29    1
    22    29    30   ar
    23    30    31   ar
    24    31    32   ar
    25    32    35    1
    26    35    36    3
    27    32    33   ar
    28    33    34   ar
    29     5     6    1
    30     6     7    1
    31     7     8    1
    32     7     9    1
    33    17    18   ar
    34    18    19   ar
    35    19    14   ar
    36     8     1    1
    37     9     3    1
    38    34    29   ar
    39    24    25    1
@<TRIPOS>MOLECULE
*****
 36 39 0 0 0
SMALL
GASTEIGER

@<TRIPOS>ATOM
      1 N         143.2440  143.9813  162.0961 N.3     1  UNL1       -0.2684
      2 C         143.7844  142.8918  161.2180 C.3     1  UNL1        0.1035
      3 C         142.8559  142.1069  160.3395 C.3     1  UNL1        0.1470
      4 C         141.9275  141.3220  159.4608 C.3     1  UNL1        0.1035
      5 N         140.4588  141.6265  159.4603 N.3     1  UNL1       -0.2673
      6 C         139.9184  142.7160  160.3385 C.3     1  UNL1        0.1035
      7 C         140.8469  143.5009  161.2171 C.3     1  UNL1        0.1470
      8 C         141.7753  144.2858  162.0956 C.3     1  UNL1        0.1035
      9 O         141.3872  142.4115  160.3390 O.3     1  UNL1       -0.3530
     10 C         144.1725  144.7662  162.9748 C.3     1  UNL1        0.0761
     11 C         143.8945  144.8835  164.4441 C.3     1  UNL1        0.0646
     12 C         144.5420  143.9339  165.4080 C.3     1  UNL1        0.2068
     13 O         143.8155  142.6961  165.8437 O.3     1  UNL1       -0.4754
     14 C         142.8008  139.5067  162.8357 C.ar    1  UNL1        0.0686
     15 C         141.7118  140.3467  163.4344 C.ar    1  UNL1        0.0134
     16 C         142.0500  141.4098  164.4371 C.ar    1  UNL1        0.0376
     17 C         143.4773  141.6330  164.8411 C.ar    1  UNL1        0.1386
     18 C         144.5663  140.7930  164.2423 C.ar    1  UNL1        0.0376
     19 C         144.2280  139.7298  163.2396 C.ar    1  UNL1        0.0134
     20 N         142.1243  137.3803  160.8304 N.1     1  UNL1       -0.1908
     21 C         142.4626  138.4436  161.8331 C.1     1  UNL1        0.1004
     22 C         139.5303  140.8416  158.5817 C.3     1  UNL1        0.0913
     23 C         138.1218  140.5781  159.0251 C.3     1  UNL1        0.1087
     24 N         137.8127  139.3746  159.8653 N.3     1  UNL1       -0.1780
     25 H         138.3881  138.6113  159.5094 H       1  UNL1        0.1488
     26 S         138.0254  139.4214  161.3494 S.O2    1  UNL1        0.0603
     27 O         137.3074  140.7369  161.4108 O.2     1  UNL1       -0.1530
     28 O         138.7433  138.1058  161.2880 O.2     1  UNL1       -0.1530
     29 C         138.2381  139.4681  162.8336 C.ar    1  UNL1        0.1220
     30 C         137.9471  140.7281  163.5936 C.ar    1  UNL1        0.0206
     31 C         138.1598  140.7749  165.0777 C.ar    1  UNL1        0.0116
     32 C         138.6634  139.5617  165.8017 C.ar    1  UNL1        0.0685
     33 C         138.9544  138.3016  165.0417 C.ar    1  UNL1        0.0116
     34 C         138.7417  138.2549  163.5576 C.ar    1  UNL1        0.0206
     35 C         138.8761  139.6084  167.2859 C.1     1  UNL1        0.1004
     36 N         139.0888  139.6552  168.7700 N.1     1  UNL1       -0.1908
@<TRIPOS>BOND
     1    20    21    3
     2    21    14    1
     3    14    15   ar
     4    15    16   ar
     5    16    17   ar
     6    17    13    1
     7    13    12    1
     8    12    11    1
     9    11    10    1
    10    10     1    1
    11     1     2    1
    12     2     3    1
    13     3     4    1
    14     4     5    1
    15     5    22    1
    16    22    23    1
    17    23    24    1
    18    24    26    1
    19    26    27    2
    20    26    28    2
    21    26    29    1
    22    29    30   ar
    23    30    31   ar
    24    31    32   ar
    25    32    35    1
    26    35    36    3
    27    32    33   ar
    28    33    34   ar
    29     5     6    1
    30     6     7    1
    31     7     8    1
    32     7     9    1
    33    17    18   ar
    34    18    19   ar
    35    19    14   ar
    36     8     1    1
    37     9     3    1
    38    34    29   ar
    39    24    25    1
@<TRIPOS>MOLECULE
*****
 36 39 0 0 0
SMALL
GASTEIGER

@<TRIPOS>ATOM
      1 N         142.9258  138.6012  160.8571 N.3     1  UNL1       -0.2684
      2 C         144.0488  139.3429  161.5193 C.3     1  UNL1        0.1035
      3 C         144.1459  139.3766  163.0157 C.3     1  UNL1        0.1470
      4 C         144.2430  139.4103  164.5122 C.3     1  UNL1        0.1035
      5 N         143.2169  138.7023  165.3465 N.3     1  UNL1       -0.2673
      6 C         142.0938  137.9606  164.6842 C.3     1  UNL1        0.1035
      7 C         141.9968  137.9269  163.1878 C.3     1  UNL1        0.1470
      8 C         141.8997  137.8932  161.6913 C.3     1  UNL1        0.1035
      9 O         143.1198  138.6686  163.8500 O.3     1  UNL1       -0.3530
     10 C         142.8287  138.5675  159.3606 C.3     1  UNL1        0.0761
     11 C         141.5507  138.9642  158.6828 C.3     1  UNL1        0.0646
     12 C         141.0658  140.3813  158.7666 C.3     1  UNL1        0.2068
     13 O         139.6979  140.6751  159.3073 O.3     1  UNL1       -0.4754
     14 C         138.6824  139.6082  163.5594 C.ar    1  UNL1        0.0686
     15 C         139.5906  140.7673  163.2734 C.ar    1  UNL1        0.0134
     16 C         139.9291  141.1229  161.8561 C.ar    1  UNL1        0.0376
     17 C         139.3594  140.3195  160.7246 C.ar    1  UNL1        0.1386
     18 C         138.4513  139.1604  161.0107 C.ar    1  UNL1        0.0376
     19 C         138.1128  138.8048  162.4281 C.ar    1  UNL1        0.0134
     20 N         138.0054  138.8969  166.3942 N.1     1  UNL1       -0.1908
     21 C         138.3439  139.2525  164.9767 C.1     1  UNL1        0.1004
     22 C         143.3140  138.7360  166.8429 C.3     1  UNL1        0.0913
     23 C         142.2905  139.4847  167.6443 C.3     1  UNL1        0.1087
     24 N         142.4097  140.9705  167.8122 N.3     1  UNL1       -0.1780
     25 H         143.4024  141.1752  167.9262 H       1  UNL1        0.1488
     26 S         141.8980  141.8895  166.7428 S.O2    1  UNL1        0.0603
     27 O         140.5039  141.3894  166.9800 O.2     1  UNL1       -0.1530
     28 O         143.2921  142.3896  166.5056 O.2     1  UNL1       -0.1530
     29 C         141.3864  142.8086  165.6734 C.ar    1  UNL1        0.1220
     30 C         142.2369  143.1124  164.4757 C.ar    1  UNL1        0.0206
     31 C         141.7253  144.0315  163.4063 C.ar    1  UNL1        0.0116
     32 C         140.3633  144.6466  163.5346 C.ar    1  UNL1        0.0685
     33 C         139.5129  144.3428  164.7323 C.ar    1  UNL1        0.0116
     34 C         140.0244  143.4238  165.8017 C.ar    1  UNL1        0.0206
     35 C         139.8517  145.5657  162.4652 C.1     1  UNL1        0.1004
     36 N         139.3401  146.4847  161.3958 N.1     1  UNL1       -0.1908
@<TRIPOS>BOND
     1    20    21    3
     2    21    14    1
     3    14    15   ar
     4    15    16   ar
     5    16    17   ar
     6    17    13    1
     7    13    12    1
     8    12    11    1
     9    11    10    1
    10    10     1    1
    11     1     2    1
    12     2     3    1
    13     3     4    1
    14     4     5    1
    15     5    22    1
    16    22    23    1
    17    23    24    1
    18    24    26    1
    19    26    27    2
    20    26    28    2
    21    26    29    1
    22    29    30   ar
    23    30    31   ar
    24    31    32   ar
    25    32    35    1
    26    35    36    3
    27    32    33   ar
    28    33    34   ar
    29     5     6    1
    30     6     7    1
    31     7     8    1
    32     7     9    1
    33    17    18   ar
    34    18    19   ar
    35    19    14   ar
    36     8     1    1
    37     9     3    1
    38    34    29   ar
    39    24    25    1
@<TRIPOS>MOLECULE
*****
 36 39 0 0 0
SMALL
GASTEIGER

@<TRIPOS>ATOM
      1 N         139.4038  143.7506  161.6038 N.3     1  UNL1       -0.2684
      2 C         138.5392  142.5408  161.4073 C.3     1  UNL1        0.1035
      3 C         139.0245  141.4017  160.5606 C.3     1  UNL1        0.1470
      4 C         139.5098  140.2625  159.7139 C.3     1  UNL1        0.1035
      5 N         140.8597  140.3332  159.0638 N.3     1  UNL1       -0.2673
      6 C         141.7244  141.5431  159.2603 C.3     1  UNL1        0.1035
      7 C         141.2391  142.6822  160.1070 C.3     1  UNL1        0.1470
      8 C         140.7538  143.8213  160.9537 C.3     1  UNL1        0.1035
      9 O         140.3744  141.4724  159.9105 O.3     1  UNL1       -0.3530
     10 C         138.9185  144.8898  162.4505 C.3     1  UNL1        0.0761
     11 C         138.9543  144.7810  163.9461 C.3     1  UNL1        0.0646
     12 C         140.2385  144.4413  164.6429 C.3     1  UNL1        0.2068
     13 O         140.7856  143.0466  164.5694 O.3     1  UNL1       -0.4754
     14 C         138.4807  139.6278  166.3718 C.ar    1  UNL1        0.0686
     15 C         138.2183  140.0450  164.9551 C.ar    1  UNL1        0.0134
     16 C         138.9866  141.1846  164.3543 C.ar    1  UNL1        0.0376
     17 C         140.0173  141.9070  165.1702 C.ar    1  UNL1        0.1386
     18 C         140.2797  141.4899  166.5869 C.ar    1  UNL1        0.0376
     19 C         139.5114  140.3502  167.1877 C.ar    1  UNL1        0.0134
     20 N         136.9441  137.3485  167.5734 N.1     1  UNL1       -0.1908
     21 C         137.7124  138.4882  166.9726 C.1     1  UNL1        0.1004
     22 C         141.3450  139.1941  158.2171 C.3     1  UNL1        0.0913
     23 C         142.2192  138.1330  158.8170 C.3     1  UNL1        0.1087
     24 N         143.4294  138.5205  159.6141 N.3     1  UNL1       -0.1780
     25 H         143.7211  139.4386  159.2790 H       1  UNL1        0.1488
     26 S         143.3452  138.6118  161.1089 S.O2    1  UNL1        0.0603
     27 O         142.3130  137.5235  161.1172 O.2     1  UNL1       -0.1530
     28 O         144.3774  139.7000  161.1006 O.2     1  UNL1       -0.1530
     29 C         143.2610  138.7031  162.6038 C.ar    1  UNL1        0.1220
     30 C         142.0122  138.2693  163.3125 C.ar    1  UNL1        0.0206
     31 C         141.9280  138.3606  164.8073 C.ar    1  UNL1        0.0116
     32 C         143.0925  138.8857  165.5934 C.ar    1  UNL1        0.0685
     33 C         144.3413  139.3195  164.8847 C.ar    1  UNL1        0.0116
     34 C         144.4256  139.2282  163.3899 C.ar    1  UNL1        0.0206
     35 C         143.0083  138.9771  167.0883 C.1     1  UNL1        0.1004
     36 N         142.9242  139.0684  168.5831 N.1     1  UNL1       -0.1908
@<TRIPOS>BOND
     1    20    21    3
     2    21    14    1
     3    14    15   ar
     4    15    16   ar
     5    16    17   ar
     6    17    13    1
     7    13    12    1
     8    12    11    1
     9    11    10    1
    10    10     1    1
    11     1     2    1
    12     2     3    1
    13     3     4    1
    14     4     5    1
    15     5    22    1
    16    22    23    1
    17    23    24    1
    18    24    26    1
    19    26    27    2
    20    26    28    2
    21    26    29    1
    22    29    30   ar
    23    30    31   ar
    24    31    32   ar
    25    32    35    1
    26    35    36    3
    27    32    33   ar
    28    33    34   ar
    29     5     6    1
    30     6     7    1
    31     7     8    1
    32     7     9    1
    33    17    18   ar
    34    18    19   ar
    35    19    14   ar
    36     8     1    1
    37     9     3    1
    38    34    29   ar
    39    24    25    1
@<TRIPOS>MOLECULE
*****
 36 39 0 0 0
SMALL
GASTEIGER

@<TRIPOS>ATOM
      1 N         144.4758  141.0738  163.0967 N.3     1  UNL1       -0.2684
      2 C         143.9655  142.2827  163.8232 C.3     1  UNL1        0.1035
      3 C         143.2512  143.3649  163.0692 C.3     1  UNL1        0.1470
      4 C         142.5368  144.4471  162.3152 C.3     1  UNL1        0.1035
      5 N         142.3327  144.3203  160.8345 N.3     1  UNL1       -0.2673
      6 C         142.8430  143.1112  160.1079 C.3     1  UNL1        0.1035
      7 C         143.5574  142.0291  160.8620 C.3     1  UNL1        0.1470
      8 C         144.2717  140.9469  161.6160 C.3     1  UNL1        0.1035
      9 O         143.0471  143.2380  161.5886 O.3     1  UNL1       -0.3530
     10 C         145.1902  139.9915  163.8507 C.3     1  UNL1        0.0761
     11 C         144.4738  139.2271  164.9242 C.3     1  UNL1        0.0646
     12 C         142.9852  139.3469  165.0642 C.3     1  UNL1        0.2068
     13 O         142.0897  138.2959  164.4781 O.3     1  UNL1       -0.4754
     14 C         139.3404  139.3287  161.0686 C.ar    1  UNL1        0.0686
     15 C         140.4081  140.2943  161.4900 C.ar    1  UNL1        0.0134
     16 C         141.3245  139.9501  162.6265 C.ar    1  UNL1        0.0376
     17 C         141.1733  138.6402  163.3416 C.ar    1  UNL1        0.1386
     18 C         140.1055  137.6746  162.9202 C.ar    1  UNL1        0.0376
     19 C         139.1891  138.0189  161.7837 C.ar    1  UNL1        0.0134
     20 N         137.5074  140.0172  158.7957 N.1     1  UNL1       -0.1908
     21 C         138.4239  139.6729  159.9322 C.1     1  UNL1        0.1004
     22 C         141.6184  145.4024  160.0805 C.3     1  UNL1        0.0913
     23 C         140.1208  145.3936  159.9946 C.3     1  UNL1        0.1087
     24 N         139.2974  145.5535  161.2381 N.3     1  UNL1       -0.1780
     25 H         138.3861  145.9054  160.9446 H       1  UNL1        0.1488
     26 S         139.0400  144.3710  162.1243 S.O2    1  UNL1        0.0603
     27 O         138.7475  143.5300  160.9172 O.2     1  UNL1       -0.1530
     28 O         139.3324  145.2120  163.3314 O.2     1  UNL1       -0.1530
     29 C         138.7826  143.1885  163.0106 C.ar    1  UNL1        0.1220
     30 C         139.6355  142.9603  164.2233 C.ar    1  UNL1        0.0206
     31 C         139.3782  141.7779  165.1095 C.ar    1  UNL1        0.0116
     32 C         138.2679  140.8236  164.7832 C.ar    1  UNL1        0.0685
     33 C         137.4149  141.0518  163.5706 C.ar    1  UNL1        0.0116
     34 C         137.6723  142.2342  162.6843 C.ar    1  UNL1        0.0206
     35 C         138.0105  139.6411  165.6695 C.1     1  UNL1        0.1004
     36 N         137.7531  138.4586  166.5557 N.1     1  UNL1       -0.1908
@<TRIPOS>BOND
     1    20    21    3
     2    21    14    1
     3    14    15   ar
     4    15    16   ar
     5    16    17   ar
     6    17    13    1
     7    13    12    1
     8    12    11    1
     9    11    10    1
    10    10     1    1
    11     1     2    1
    12     2     3    1
    13     3     4    1
    14     4     5    1
    15     5    22    1
    16    22    23    1
    17    23    24    1
    18    24    26    1
    19    26    27    2
    20    26    28    2
    21    26    29    1
    22    29    30   ar
    23    30    31   ar
    24    31    32   ar
    25    32    35    1
    26    35    36    3
    27    32    33   ar
    28    33    34   ar
    29     5     6    1
    30     6     7    1
    31     7     8    1
    32     7     9    1
    33    17    18   ar
    34    18    19   ar
    35    19    14   ar
    36     8     1    1
    37     9     3    1
    38    34    29   ar
    39    24    25    1
@<TRIPOS>MOLECULE
*****
 36 39 0 0 0
SMALL
GASTEIGER

@<TRIPOS>ATOM
      1 N         141.6972  139.9718  159.2164 N.3     1  UNL1       -0.2684
      2 C         142.7470  141.0411  159.2821 C.3     1  UNL1        0.1035
      3 C         142.3574  142.4567  159.5893 C.3     1  UNL1        0.1470
      4 C         141.9679  143.8723  159.8965 C.3     1  UNL1        0.1035
      5 N         140.5285  144.2185  160.1380 N.3     1  UNL1       -0.2673
      6 C         139.4787  143.1491  160.0722 C.3     1  UNL1        0.1035
      7 C         139.8682  141.7336  159.7650 C.3     1  UNL1        0.1470
      8 C         140.2578  140.3180  159.4578 C.3     1  UNL1        0.1035
      9 O         140.9180  142.8029  159.8308 O.3     1  UNL1       -0.3530
     10 C         142.0868  138.5562  158.9091 C.3     1  UNL1        0.0761
     11 C         143.0434  137.8298  159.8075 C.3     1  UNL1        0.0646
     12 C         142.7826  137.7624  161.2831 C.3     1  UNL1        0.2068
     13 O         142.2364  138.9593  162.0036 O.3     1  UNL1       -0.4754
     14 C         139.1488  138.4257  165.2334 C.ar    1  UNL1        0.0686
     15 C         139.0973  139.6279  164.3380 C.ar    1  UNL1        0.0134
     16 C         140.1265  139.8058  163.2614 C.ar    1  UNL1        0.0376
     17 C         141.2072  138.7814  163.0802 C.ar    1  UNL1        0.1386
     18 C         141.2586  137.5791  163.9757 C.ar    1  UNL1        0.0376
     19 C         140.2294  137.4013  165.0523 C.ar    1  UNL1        0.0134
     20 N         137.0904  138.0699  167.3867 N.1     1  UNL1       -0.1908
     21 C         138.1196  138.2478  166.3100 C.1     1  UNL1        0.1004
     22 C         140.1389  145.6341  160.4452 C.3     1  UNL1        0.0913
     23 C         139.7816  146.0260  161.8483 C.3     1  UNL1        0.1087
     24 N         140.8449  146.0840  162.9047 N.3     1  UNL1       -0.1780
     25 H         140.5199  146.7412  163.6138 H       1  UNL1        0.1488
     26 S         141.2533  144.8344  163.6271 S.O2    1  UNL1        0.0603
     27 O         142.6869  145.2725  163.5742 O.2     1  UNL1       -0.1530
     28 O         139.8196  144.3964  163.6799 O.2     1  UNL1       -0.1530
     29 C         141.6616  143.5848  164.3495 C.ar    1  UNL1        0.1220
     30 C         140.9340  143.1652  165.5922 C.ar    1  UNL1        0.0206
     31 C         141.3423  141.9157  166.3146 C.ar    1  UNL1        0.0116
     32 C         142.4782  141.0858  165.7943 C.ar    1  UNL1        0.0685
     33 C         143.2059  141.5054  164.5516 C.ar    1  UNL1        0.0116
     34 C         142.7976  142.7549  163.8292 C.ar    1  UNL1        0.0206
     35 C         142.8866  139.8362  166.5167 C.1     1  UNL1        0.1004
     36 N         143.2950  138.5867  167.2391 N.1     1  UNL1       -0.1908
@<TRIPOS>BOND
     1    20    21    3
     2    21    14    1
     3    14    15   ar
     4    15    16   ar
     5    16    17   ar
     6    17    13    1
     7    13    12    1
     8    12    11    1
     9    11    10    1
    10    10     1    1
    11     1     2    1
    12     2     3    1
    13     3     4    1
    14     4     5    1
    15     5    22    1
    16    22    23    1
    17    23    24    1
    18    24    26    1
    19    26    27    2
    20    26    28    2
    21    26    29    1
    22    29    30   ar
    23    30    31   ar
    24    31    32   ar
    25    32    35    1
    26    35    36    3
    27    32    33   ar
    28    33    34   ar
    29     5     6    1
    30     6     7    1
    31     7     8    1
    32     7     9    1
    33    17    18   ar
    34    18    19   ar
    35    19    14   ar
    36     8     1    1
    37     9     3    1
    38    34    29   ar
    39    24    25    1
