@<TRIPOS>MOLECULE
*****
 34 39 0 0 0
SMALL
GASTEIGER

@<TRIPOS>ATOM
      1 N         138.7499  141.0559  160.3685 N.ar    1  UNL1       -0.2701
      2 C         138.7166  142.5515  160.4789 C.ar    1  UNL1        0.3532
      3 O         137.7129  143.2153  161.3744 O.2     1  UNL1       -0.2443
      4 N         139.6872  143.3832  159.6938 N.ar    1  UNL1       -0.1606
      5 N         139.8917  144.8662  159.6001 N.ar    1  UNL1       -0.1372
      6 C         141.0218  145.1189  158.6468 C.ar    1  UNL1        0.2214
      7 N         141.5158  143.7921  158.1512 N.ar    1  UNL1       -0.2032
      8 C         140.6909  142.7193  158.7984 C.ar    1  UNL1        0.1717
      9 C         140.7241  141.2238  158.6880 C.ar    1  UNL1        0.0545
     10 C         141.5934  140.2951  157.8931 C.ar    1  UNL1       -0.0126
     11 C         141.1601  138.8894  158.1868 C.ar    1  UNL1        0.0210
     12 S         140.0230  138.9493  159.1633 S.2     1  UNL1       -0.0728
     13 C         139.7535  140.3921  159.4731 C.ar    1  UNL1        0.0965
     14 C         141.8569  137.7364  157.5272 C.3     1  UNL1        0.1054
     15 N         142.9870  137.9891  156.5738 N.3     1  UNL1       -0.2682
     16 C         143.4203  139.3948  156.2801 C.3     1  UNL1        0.0771
     17 C         142.7235  140.5478  156.9397 C.3     1  UNL1        0.0441
     18 C         137.7793  140.2242  161.1536 C.3     1  UNL1        0.1400
     19 C         138.6050  139.2824  165.4757 C.ar    1  UNL1        0.1410
     20 C         138.0754  140.6318  165.0901 C.ar    1  UNL1        0.0368
     21 C         137.8002  140.9457  163.6493 C.ar    1  UNL1        0.0030
     22 C         138.0545  139.9102  162.5943 C.ar    1  UNL1        0.0282
     23 C         138.5841  138.5609  162.9800 C.ar    1  UNL1        0.1410
     24 F         138.8385  137.5255  161.9249 F       1  UNL1       -0.2043
     25 C         138.8594  138.2470  164.4207 C.ar    1  UNL1        0.0662
     26 C         139.5336  139.9931  167.7958 C.3     1  UNL1        0.2525
     27 O         138.8803  138.9684  166.9165 O.3     1  UNL1       -0.4714
     28 C         143.6838  136.8362  155.9143 C.3     1  UNL1        0.0725
     29 C         143.1198  135.4514  156.0334 C.3     1  UNL1        0.0210
     30 C         143.6909  134.4926  157.0356 C.3     1  UNL1        0.0335
     31 C         143.1269  133.1079  157.1548 C.3     1  UNL1        0.1422
     32 O         141.9918  132.6818  156.2718 O.3     1  UNL1       -0.3538
     33 C         141.4206  133.6406  155.2695 C.3     1  UNL1        0.1422
     34 C         141.9846  135.0253  155.1503 C.3     1  UNL1        0.0335
@<TRIPOS>BOND
     1    26    27    1
     2    27    19    1
     3    19    20   ar
     4    20    21   ar
     5    21    22   ar
     6    22    18    1
     7    18     1    1
     8     1     2   ar
     9     2     3    2
    10     2     4   ar
    11     4     5   ar
    12     5     6   ar
    13     6     7   ar
    14     7     8   ar
    15     8     9   ar
    16     9    10   ar
    17    10    11   ar
    18    11    12   ar
    19    12    13   ar
    20    11    14    1
    21    14    15    1
    22    15    28    1
    23    28    29    1
    24    29    30    1
    25    30    31    1
    26    31    32    1
    27    32    33    1
    28    33    34    1
    29    15    16    1
    30    16    17    1
    31    22    23   ar
    32    23    24    1
    33    23    25   ar
    34    25    19   ar
    35    13     1   ar
    36    34    29    1
    37     8     4   ar
    38    13     9   ar
    39    17    10    1
@<TRIPOS>MOLECULE
*****
 34 39 0 0 0
SMALL
GASTEIGER

@<TRIPOS>ATOM
      1 N         142.4317  139.8369  167.2138 N.ar    1  UNL1       -0.2701
      2 C         142.2970  139.8170  168.7076 C.ar    1  UNL1        0.3532
      3 O         142.9736  138.7435  169.5075 O.2     1  UNL1       -0.2443
      4 N         141.4857  140.8708  169.4015 N.ar    1  UNL1       -0.1606
      5 N         141.1754  141.1067  170.8499 N.ar    1  UNL1       -0.1372
      6 C         140.3070  142.3261  170.9452 C.ar    1  UNL1        0.2214
      7 N         140.0807  142.8437  169.5556 N.ar    1  UNL1       -0.2032
      8 C         140.8092  141.9443  168.6016 C.ar    1  UNL1        0.1717
      9 C         140.9439  141.9640  167.1078 C.ar    1  UNL1        0.0545
     10 C         140.3957  142.8900  166.0627 C.ar    1  UNL1       -0.0126
     11 C         140.8681  142.4085  164.7230 C.ar    1  UNL1        0.0210
     12 S         141.7084  141.1851  164.9400 S.2     1  UNL1       -0.0728
     13 C         141.7552  140.9103  166.4139 C.ar    1  UNL1        0.0965
     14 C         140.4722  143.1465  163.4785 C.3     1  UNL1        0.1054
     15 N         139.6038  144.3658  163.5737 N.3     1  UNL1       -0.2682
     16 C         139.1314  144.8472  164.9136 C.3     1  UNL1        0.0771
     17 C         139.5273  144.1093  166.1580 C.3     1  UNL1        0.0441
     18 C         143.2431  138.7831  166.5198 C.3     1  UNL1        0.1400
     19 C         142.3773  137.7391  162.2290 C.ar    1  UNL1        0.1410
     20 C         141.4211  137.3270  163.3088 C.ar    1  UNL1        0.0368
     21 C         141.7097  137.6750  164.7391 C.ar    1  UNL1        0.0030
     22 C         142.9545  138.4351  165.0896 C.ar    1  UNL1        0.0282
     23 C         143.9106  138.8472  164.0098 C.ar    1  UNL1        0.1410
     24 F         145.1553  139.6073  164.3603 F       1  UNL1       -0.2043
     25 C         143.6220  138.4992  162.5795 C.ar    1  UNL1        0.0662
     26 C         142.7519  138.1567  159.6923 C.3     1  UNL1        0.2525
     27 O         142.0888  137.3912  160.7987 O.3     1  UNL1       -0.4714
     28 C         139.2079  145.1037  162.3293 C.3     1  UNL1        0.0725
     29 C         139.7366  144.6638  160.9963 C.3     1  UNL1        0.0210
     30 C         139.1784  143.4385  160.3353 C.3     1  UNL1        0.0335
     31 C         139.7071  142.9986  159.0023 C.3     1  UNL1        0.1422
     32 O         140.7940  143.7840  158.3303 O.3     1  UNL1       -0.3538
     33 C         141.3523  145.0093  158.9912 C.3     1  UNL1        0.1422
     34 C         140.8236  145.4492  160.3243 C.3     1  UNL1        0.0335
@<TRIPOS>BOND
     1    26    27    1
     2    27    19    1
     3    19    20   ar
     4    20    21   ar
     5    21    22   ar
     6    22    18    1
     7    18     1    1
     8     1     2   ar
     9     2     3    2
    10     2     4   ar
    11     4     5   ar
    12     5     6   ar
    13     6     7   ar
    14     7     8   ar
    15     8     9   ar
    16     9    10   ar
    17    10    11   ar
    18    11    12   ar
    19    12    13   ar
    20    11    14    1
    21    14    15    1
    22    15    28    1
    23    28    29    1
    24    29    30    1
    25    30    31    1
    26    31    32    1
    27    32    33    1
    28    33    34    1
    29    15    16    1
    30    16    17    1
    31    22    23   ar
    32    23    24    1
    33    23    25   ar
    34    25    19   ar
    35    13     1   ar
    36    34    29    1
    37     8     4   ar
    38    13     9   ar
    39    17    10    1
@<TRIPOS>MOLECULE
*****
 34 39 0 0 0
SMALL
GASTEIGER

@<TRIPOS>ATOM
      1 N         143.1023  142.3627  166.9425 N.ar    1  UNL1       -0.2701
      2 C         143.1688  142.1583  168.4271 C.ar    1  UNL1        0.3532
      3 O         144.2441  142.8295  169.2291 O.2     1  UNL1       -0.2443
      4 N         142.1600  141.2827  169.1094 N.ar    1  UNL1       -0.1606
      5 N         141.9749  140.8970  170.5471 N.ar    1  UNL1       -0.1372
      6 C         140.7853  139.9875  170.6336 C.ar    1  UNL1        0.2214
      7 N         140.2352  139.8110  169.2493 N.ar    1  UNL1       -0.2032
      8 C         141.0848  140.6115  168.3073 C.ar    1  UNL1        0.1717
      9 C         141.0183  140.8159  166.8228 C.ar    1  UNL1        0.0545
     10 C         140.0797  140.2890  165.7781 C.ar    1  UNL1       -0.0126
     11 C         140.5083  140.8391  164.4501 C.ar    1  UNL1        0.0210
     12 S         141.7119  141.7059  164.6739 S.2     1  UNL1       -0.0728
     13 C         142.0271  141.6916  166.1404 C.ar    1  UNL1        0.0965
     14 C         139.7473  140.4795  163.2084 C.3     1  UNL1        0.1054
     15 N         138.5577  139.5700  163.2948 N.3     1  UNL1       -0.2682
     16 C         138.1291  139.0200  164.6230 C.3     1  UNL1        0.0771
     17 C         138.8900  139.3795  165.8645 C.3     1  UNL1        0.0441
     18 C         144.1111  143.2384  166.2601 C.3     1  UNL1        0.1400
     19 C         144.9060  142.7466  161.8582 C.ar    1  UNL1        0.1410
     20 C         145.4079  141.7203  162.8302 C.ar    1  UNL1        0.0368
     21 C         145.1429  141.8843  164.2975 C.ar    1  UNL1        0.0030
     22 C         144.3760  143.0745  164.7928 C.ar    1  UNL1        0.0282
     23 C         143.8741  144.1007  163.8207 C.ar    1  UNL1        0.1410
     24 F         143.1072  145.2909  164.3160 F       1  UNL1       -0.2043
     25 C         144.1390  143.9367  162.3534 C.ar    1  UNL1        0.0662
     26 C         144.0291  142.5830  159.4180 C.3     1  UNL1        0.2525
     27 O         145.1709  142.5827  160.3909 O.3     1  UNL1       -0.4714
     28 C         137.7967  139.2105  162.0533 C.3     1  UNL1        0.0725
     29 C         138.4575  139.3183  160.7110 C.3     1  UNL1        0.0210
     30 C         137.9812  140.3389  159.7204 C.3     1  UNL1        0.0335
     31 C         138.6420  140.4467  158.3781 C.3     1  UNL1        0.1422
     32 O         139.7790  139.5339  158.0265 O.3     1  UNL1       -0.3538
     33 C         140.2553  138.5132  159.0171 C.3     1  UNL1        0.1422
     34 C         139.5946  138.4054  160.3593 C.3     1  UNL1        0.0335
@<TRIPOS>BOND
     1    26    27    1
     2    27    19    1
     3    19    20   ar
     4    20    21   ar
     5    21    22   ar
     6    22    18    1
     7    18     1    1
     8     1     2   ar
     9     2     3    2
    10     2     4   ar
    11     4     5   ar
    12     5     6   ar
    13     6     7   ar
    14     7     8   ar
    15     8     9   ar
    16     9    10   ar
    17    10    11   ar
    18    11    12   ar
    19    12    13   ar
    20    11    14    1
    21    14    15    1
    22    15    28    1
    23    28    29    1
    24    29    30    1
    25    30    31    1
    26    31    32    1
    27    32    33    1
    28    33    34    1
    29    15    16    1
    30    16    17    1
    31    22    23   ar
    32    23    24    1
    33    23    25   ar
    34    25    19   ar
    35    13     1   ar
    36    34    29    1
    37     8     4   ar
    38    13     9   ar
    39    17    10    1
@<TRIPOS>MOLECULE
*****
 34 39 0 0 0
SMALL
GASTEIGER

@<TRIPOS>ATOM
      1 N         139.9004  140.1892  167.3522 N.ar    1  UNL1       -0.2701
      2 C         139.9554  140.5230  168.8136 C.ar    1  UNL1        0.3532
      3 O         138.9163  139.9768  169.7473 O.2     1  UNL1       -0.2443
      4 N         141.0496  141.4030  169.3411 N.ar    1  UNL1       -0.1606
      5 N         141.3595  141.9007  170.7218 N.ar    1  UNL1       -0.1372
      6 C         142.5902  142.7545  170.6413 C.ar    1  UNL1        0.2214
      7 N         143.0409  142.7844  169.2109 N.ar    1  UNL1       -0.2032
      8 C         142.0888  141.9492  168.4074 C.ar    1  UNL1        0.1717
      9 C         142.0337  141.6153  166.9460 C.ar    1  UNL1        0.0545
     10 C         142.9122  142.0039  165.7939 C.ar    1  UNL1       -0.0126
     11 C         142.3609  141.3640  164.5543 C.ar    1  UNL1        0.0210
     12 S         141.1418  140.5800  164.9403 S.2     1  UNL1       -0.0728
     13 C         140.9395  140.7353  166.4185 C.ar    1  UNL1        0.0965
     14 C         143.0404  141.5779  163.2342 C.3     1  UNL1        0.1054
     15 N         144.2710  142.4317  163.1537 N.3     1  UNL1       -0.2682
     16 C         144.8222  143.0716  164.3934 C.3     1  UNL1        0.0771
     17 C         144.1429  142.8577  165.7134 C.3     1  UNL1        0.0441
     18 C         138.8062  139.3092  166.8246 C.3     1  UNL1        0.1400
     19 C         137.9864  139.1441  162.4029 C.ar    1  UNL1        0.1410
     20 C         137.6526  140.3817  163.1819 C.ar    1  UNL1        0.0368
     21 C         137.9258  140.4367  164.6558 C.ar    1  UNL1        0.0030
     22 C         138.5329  139.2541  165.3507 C.ar    1  UNL1        0.0282
     23 C         138.8668  138.0165  164.5717 C.ar    1  UNL1        0.1410
     24 F         139.4739  136.8339  165.2666 F       1  UNL1       -0.2043
     25 C         138.5936  137.9615  163.0978 C.ar    1  UNL1        0.0662
     26 C         137.9395  140.3036  160.0784 C.3     1  UNL1        0.2525
     27 O         137.7132  139.0890  160.9290 O.3     1  UNL1       -0.4714
     28 C         144.9504  142.6456  161.8337 C.3     1  UNL1        0.0725
     29 C         144.1331  142.9017  160.6023 C.3     1  UNL1        0.0210
     30 C         142.8449  143.6635  160.7022 C.3     1  UNL1        0.0335
     31 C         142.0275  143.9196  159.4708 C.3     1  UNL1        0.1422
     32 O         142.4984  143.4138  158.1395 O.3     1  UNL1       -0.3538
     33 C         143.7866  142.6519  158.0396 C.3     1  UNL1        0.1422
     34 C         144.6039  142.3958  159.2710 C.3     1  UNL1        0.0335
@<TRIPOS>BOND
     1    26    27    1
     2    27    19    1
     3    19    20   ar
     4    20    21   ar
     5    21    22   ar
     6    22    18    1
     7    18     1    1
     8     1     2   ar
     9     2     3    2
    10     2     4   ar
    11     4     5   ar
    12     5     6   ar
    13     6     7   ar
    14     7     8   ar
    15     8     9   ar
    16     9    10   ar
    17    10    11   ar
    18    11    12   ar
    19    12    13   ar
    20    11    14    1
    21    14    15    1
    22    15    28    1
    23    28    29    1
    24    29    30    1
    25    30    31    1
    26    31    32    1
    27    32    33    1
    28    33    34    1
    29    15    16    1
    30    16    17    1
    31    22    23   ar
    32    23    24    1
    33    23    25   ar
    34    25    19   ar
    35    13     1   ar
    36    34    29    1
    37     8     4   ar
    38    13     9   ar
    39    17    10    1
@<TRIPOS>MOLECULE
*****
 34 39 0 0 0
SMALL
GASTEIGER

@<TRIPOS>ATOM
      1 N         143.1686  142.8787  160.5097 N.ar    1  UNL1       -0.2701
      2 C         142.3578  144.0005  159.9313 C.ar    1  UNL1        0.3532
      3 O         142.5609  144.4142  158.5039 O.2     1  UNL1       -0.2443
      4 N         141.3440  144.7083  160.7805 N.ar    1  UNL1       -0.1606
      5 N         140.4048  145.8408  160.4881 N.ar    1  UNL1       -0.1372
      6 C         139.6214  146.1268  161.7348 C.ar    1  UNL1        0.2214
      7 N         140.0763  145.1712  162.7977 N.ar    1  UNL1       -0.2032
      8 C         141.1410  144.2945  162.2079 C.ar    1  UNL1        0.1717
      9 C         141.9518  143.1728  162.7862 C.ar    1  UNL1        0.0545
     10 C         141.9722  142.5484  164.1499 C.ar    1  UNL1       -0.0126
     11 C         142.9987  141.4546  164.1436 C.ar    1  UNL1        0.0210
     12 S         143.6126  141.4030  162.7760 S.2     1  UNL1       -0.0728
     13 C         142.9656  142.4649  161.9370 C.ar    1  UNL1        0.0965
     14 C         143.2417  140.6469  165.3840 C.3     1  UNL1        0.1054
     15 N         142.4582  140.9330  166.6307 N.3     1  UNL1       -0.2682
     16 C         141.4317  142.0268  166.6370 C.3     1  UNL1        0.0771
     17 C         141.1887  142.8344  165.3966 C.3     1  UNL1        0.0441
     18 C         144.1825  142.1708  159.6605 C.3     1  UNL1        0.1400
     19 C         142.9246  138.7199  157.0607 C.ar    1  UNL1        0.1410
     20 C         142.8679  138.5934  158.5542 C.ar    1  UNL1        0.0368
     21 C         143.2872  139.7437  159.4208 C.ar    1  UNL1        0.0030
     22 C         143.7632  141.0205  158.7939 C.ar    1  UNL1        0.0282
     23 C         143.8199  141.1471  157.3003 C.ar    1  UNL1        0.1410
     24 F         144.2959  142.4239  156.6733 F       1  UNL1       -0.2043
     25 C         143.4006  139.9968  156.4337 C.ar    1  UNL1        0.0662
     26 C         142.7331  136.1608  156.6557 C.3     1  UNL1        0.2525
     27 O         142.5052  137.5696  156.1940 O.3     1  UNL1       -0.4714
     28 C         142.7012  140.1254  167.8711 C.3     1  UNL1        0.0725
     29 C         142.0237  140.5012  169.1555 C.3     1  UNL1        0.0210
     30 C         142.5957  141.5896  170.0146 C.3     1  UNL1        0.0335
     31 C         141.9183  141.9654  171.2990 C.3     1  UNL1        0.1422
     32 O         140.6688  141.2529  171.7243 O.3     1  UNL1       -0.3538
     33 C         140.0967  140.1645  170.8652 C.3     1  UNL1        0.1422
     34 C         140.7742  139.7886  169.5808 C.3     1  UNL1        0.0335
@<TRIPOS>BOND
     1    26    27    1
     2    27    19    1
     3    19    20   ar
     4    20    21   ar
     5    21    22   ar
     6    22    18    1
     7    18     1    1
     8     1     2   ar
     9     2     3    2
    10     2     4   ar
    11     4     5   ar
    12     5     6   ar
    13     6     7   ar
    14     7     8   ar
    15     8     9   ar
    16     9    10   ar
    17    10    11   ar
    18    11    12   ar
    19    12    13   ar
    20    11    14    1
    21    14    15    1
    22    15    28    1
    23    28    29    1
    24    29    30    1
    25    30    31    1
    26    31    32    1
    27    32    33    1
    28    33    34    1
    29    15    16    1
    30    16    17    1
    31    22    23   ar
    32    23    24    1
    33    23    25   ar
    34    25    19   ar
    35    13     1   ar
    36    34    29    1
    37     8     4   ar
    38    13     9   ar
    39    17    10    1
@<TRIPOS>MOLECULE
*****
 34 39 0 0 0
SMALL
GASTEIGER

@<TRIPOS>ATOM
      1 N         139.1913  141.0865  160.1333 N.ar    1  UNL1       -0.2701
      2 C         139.3793  142.4070  159.4469 C.ar    1  UNL1        0.3532
      3 O         139.3001  142.4929  157.9515 O.2     1  UNL1       -0.2443
      4 N         139.6466  143.6414  160.2561 N.ar    1  UNL1       -0.1606
      5 N         139.8722  145.0709  159.8613 N.ar    1  UNL1       -0.1372
      6 C         140.0909  145.8683  161.1128 C.ar    1  UNL1        0.2214
      7 N         140.0004  144.9317  162.2810 N.ar    1  UNL1       -0.2032
      8 C         139.7259  143.5554  161.7515 C.ar    1  UNL1        0.1717
      9 C         139.5378  142.2350  162.4378 C.ar    1  UNL1        0.0545
     10 C         139.5607  141.8442  163.8858 C.ar    1  UNL1       -0.0126
     11 C         139.3075  140.3682  163.9717 C.ar    1  UNL1        0.0210
     12 S         139.1281  139.8468  162.5767 S.2     1  UNL1       -0.0728
     13 C         139.2705  141.0005  161.6287 C.ar    1  UNL1        0.0965
     14 C         139.2729  139.6897  165.3090 C.3     1  UNL1        0.1054
     15 N         139.4916  140.4871  166.5605 N.3     1  UNL1       -0.2682
     16 C         139.7448  141.9631  166.4746 C.3     1  UNL1        0.0771
     17 C         139.7793  142.6416  165.1374 C.3     1  UNL1        0.0441
     18 C         138.9239  139.8520  159.3242 C.3     1  UNL1        0.1400
     19 C         142.3359  137.6502  157.3850 C.ar    1  UNL1        0.1410
     20 C         142.4027  138.0041  158.8411 C.ar    1  UNL1        0.0368
     21 C         141.2654  138.7380  159.4875 C.ar    1  UNL1        0.0030
     22 C         140.0613  139.1181  158.6778 C.ar    1  UNL1        0.0282
     23 C         139.9945  138.7642  157.2217 C.ar    1  UNL1        0.1410
     24 F         138.7904  139.1443  156.4119 F       1  UNL1       -0.2043
     25 C         141.1318  138.0303  156.5753 C.ar    1  UNL1        0.0662
     26 C         143.4003  135.4288  156.5589 C.3     1  UNL1        0.2525
     27 O         143.4732  136.9162  156.7385 O.3     1  UNL1       -0.4714
     28 C         139.4570  139.8086  167.8977 C.3     1  UNL1        0.0725
     29 C         140.3275  140.3056  169.0137 C.3     1  UNL1        0.0210
     30 C         139.7994  141.3239  169.9802 C.3     1  UNL1        0.0335
     31 C         140.6699  141.8209  171.0961 C.3     1  UNL1        0.1422
     32 O         142.0684  141.2997  171.2455 O.3     1  UNL1       -0.3538
     33 C         142.5965  140.2813  170.2790 C.3     1  UNL1        0.1422
     34 C         141.7260  139.7843  169.1631 C.3     1  UNL1        0.0335
@<TRIPOS>BOND
     1    26    27    1
     2    27    19    1
     3    19    20   ar
     4    20    21   ar
     5    21    22   ar
     6    22    18    1
     7    18     1    1
     8     1     2   ar
     9     2     3    2
    10     2     4   ar
    11     4     5   ar
    12     5     6   ar
    13     6     7   ar
    14     7     8   ar
    15     8     9   ar
    16     9    10   ar
    17    10    11   ar
    18    11    12   ar
    19    12    13   ar
    20    11    14    1
    21    14    15    1
    22    15    28    1
    23    28    29    1
    24    29    30    1
    25    30    31    1
    26    31    32    1
    27    32    33    1
    28    33    34    1
    29    15    16    1
    30    16    17    1
    31    22    23   ar
    32    23    24    1
    33    23    25   ar
    34    25    19   ar
    35    13     1   ar
    36    34    29    1
    37     8     4   ar
    38    13     9   ar
    39    17    10    1
@<TRIPOS>MOLECULE
*****
 34 39 0 0 0
SMALL
GASTEIGER

@<TRIPOS>ATOM
      1 N         142.3698  139.8120  167.3680 N.ar    1  UNL1       -0.2701
      2 C         142.2434  139.8689  168.8616 C.ar    1  UNL1        0.3532
      3 O         142.9106  138.8280  169.7109 O.2     1  UNL1       -0.2443
      4 N         141.4497  140.9667  169.5058 N.ar    1  UNL1       -0.1606
      5 N         141.1507  141.2790  170.9421 N.ar    1  UNL1       -0.1372
      6 C         140.2987  142.5130  170.9803 C.ar    1  UNL1        0.2214
      7 N         140.0712  142.9632  169.5677 N.ar    1  UNL1       -0.2032
      8 C         140.7826  142.0076  168.6564 C.ar    1  UNL1        0.1717
      9 C         140.9090  141.9506  167.1628 C.ar    1  UNL1        0.0545
     10 C         140.3669  142.8302  166.0753 C.ar    1  UNL1       -0.0126
     11 C         140.8254  142.2760  164.7591 C.ar    1  UNL1        0.0210
     12 S         141.6510  141.0539  165.0330 S.2     1  UNL1       -0.0728
     13 C         141.7027  140.8528  166.5186 C.ar    1  UNL1        0.0965
     14 C         140.4320  142.9557  163.4811 C.3     1  UNL1        0.1054
     15 N         139.5800  144.1897  163.5194 N.3     1  UNL1       -0.2682
     16 C         139.1215  144.7438  164.8357 C.3     1  UNL1        0.0771
     17 C         139.5149  144.0641  166.1136 C.3     1  UNL1        0.0441
     18 C         143.1635  138.7142  166.7237 C.3     1  UNL1        0.1400
     19 C         143.7723  138.6963  162.2651 C.ar    1  UNL1        0.1410
     20 C         144.7548  139.4001  163.1534 C.ar    1  UNL1        0.0368
     21 C         144.5519  139.4061  164.6396 C.ar    1  UNL1        0.0030
     22 C         143.3664  138.7082  165.2375 C.ar    1  UNL1        0.0282
     23 C         142.3838  138.0043  164.3492 C.ar    1  UNL1        0.1410
     24 F         141.1983  137.3064  164.9471 F       1  UNL1       -0.2043
     25 C         142.5868  137.9984  162.8630 C.ar    1  UNL1        0.0662
     26 C         142.8770  138.2154  159.8740 C.3     1  UNL1        0.2525
     27 O         143.9751  138.6902  160.7789 O.3     1  UNL1       -0.4714
     28 C         139.1866  144.8693  162.2415 C.3     1  UNL1        0.0725
     29 C         139.7947  144.4326  160.9417 C.3     1  UNL1        0.0210
     30 C         140.9532  145.1900  160.3637 C.3     1  UNL1        0.0335
     31 C         141.5613  144.7532  159.0639 C.3     1  UNL1        0.1422
     32 O         141.0109  143.5592  158.3421 O.3     1  UNL1       -0.3538
     33 C         139.8523  142.8018  158.9201 C.3     1  UNL1        0.1422
     34 C         139.2442  143.2385  160.2199 C.3     1  UNL1        0.0335
@<TRIPOS>BOND
     1    26    27    1
     2    27    19    1
     3    19    20   ar
     4    20    21   ar
     5    21    22   ar
     6    22    18    1
     7    18     1    1
     8     1     2   ar
     9     2     3    2
    10     2     4   ar
    11     4     5   ar
    12     5     6   ar
    13     6     7   ar
    14     7     8   ar
    15     8     9   ar
    16     9    10   ar
    17    10    11   ar
    18    11    12   ar
    19    12    13   ar
    20    11    14    1
    21    14    15    1
    22    15    28    1
    23    28    29    1
    24    29    30    1
    25    30    31    1
    26    31    32    1
    27    32    33    1
    28    33    34    1
    29    15    16    1
    30    16    17    1
    31    22    23   ar
    32    23    24    1
    33    23    25   ar
    34    25    19   ar
    35    13     1   ar
    36    34    29    1
    37     8     4   ar
    38    13     9   ar
    39    17    10    1
@<TRIPOS>MOLECULE
*****
 34 39 0 0 0
SMALL
GASTEIGER

@<TRIPOS>ATOM
      1 N         141.8044  142.1131  160.1608 N.ar    1  UNL1       -0.2701
      2 C         141.1514  143.3574  159.6359 C.ar    1  UNL1        0.3532
      3 O         141.0529  143.5859  158.1566 O.2     1  UNL1       -0.2443
      4 N         140.5970  144.3731  160.5903 N.ar    1  UNL1       -0.1606
      5 N         139.9035  145.6847  160.3690 N.ar    1  UNL1       -0.1372
      6 C         139.5735  146.2667  161.7115 C.ar    1  UNL1        0.2214
      7 N         140.0629  145.3149  162.7625 N.ar    1  UNL1       -0.2032
      8 C         140.6955  144.1446  162.0695 C.ar    1  UNL1        0.1717
      9 C         141.3484  142.9003  162.5943 C.ar    1  UNL1        0.0545
     10 C         141.5897  142.4055  163.9897 C.ar    1  UNL1       -0.0126
     11 C         142.2933  141.0840  163.8977 C.ar    1  UNL1        0.0210
     12 S         142.4868  140.7620  162.4455 S.2     1  UNL1       -0.0728
     13 C         141.9029  141.8846  161.6399 C.ar    1  UNL1        0.0965
     14 C         142.6668  140.3445  165.1481 C.3     1  UNL1        0.1054
     15 N         142.3368  140.9265  166.4906 N.3     1  UNL1       -0.2682
     16 C         141.6332  142.2481  166.5826 C.3     1  UNL1        0.0771
     17 C         141.2597  142.9875  165.3322 C.3     1  UNL1        0.0441
     18 C         142.3588  141.0973  159.2064 C.3     1  UNL1        0.1400
     19 C         146.1150  141.9954  156.8965 C.ar    1  UNL1        0.1410
     20 C         145.8254  142.7294  158.1722 C.ar    1  UNL1        0.0368
     21 C         144.5734  142.4300  158.9421 C.ar    1  UNL1        0.0030
     22 C         143.6109  141.3967  158.4364 C.ar    1  UNL1        0.0282
     23 C         143.9004  140.6627  157.1607 C.ar    1  UNL1        0.1410
     24 F         142.9379  139.6293  156.6550 F       1  UNL1       -0.2043
     25 C         145.1525  140.9620  156.3908 C.ar    1  UNL1        0.0662
     26 C         147.6197  141.6161  154.8128 C.3     1  UNL1        0.2525
     27 O         147.3670  142.2946  156.1265 O.3     1  UNL1       -0.4714
     28 C         142.7103  140.1870  167.7410 C.3     1  UNL1        0.0725
     29 C         142.0318  140.5158  169.0378 C.3     1  UNL1        0.0210
     30 C         140.7357  139.8511  169.3957 C.3     1  UNL1        0.0335
     31 C         140.0573  140.1798  170.6925 C.3     1  UNL1        0.1422
     32 O         140.6749  141.1732  171.6313 O.3     1  UNL1       -0.3538
     33 C         141.9710  141.8380  171.2734 C.3     1  UNL1        0.1422
     34 C         142.6495  141.5093  169.9766 C.3     1  UNL1        0.0335
@<TRIPOS>BOND
     1    26    27    1
     2    27    19    1
     3    19    20   ar
     4    20    21   ar
     5    21    22   ar
     6    22    18    1
     7    18     1    1
     8     1     2   ar
     9     2     3    2
    10     2     4   ar
    11     4     5   ar
    12     5     6   ar
    13     6     7   ar
    14     7     8   ar
    15     8     9   ar
    16     9    10   ar
    17    10    11   ar
    18    11    12   ar
    19    12    13   ar
    20    11    14    1
    21    14    15    1
    22    15    28    1
    23    28    29    1
    24    29    30    1
    25    30    31    1
    26    31    32    1
    27    32    33    1
    28    33    34    1
    29    15    16    1
    30    16    17    1
    31    22    23   ar
    32    23    24    1
    33    23    25   ar
    34    25    19   ar
    35    13     1   ar
    36    34    29    1
    37     8     4   ar
    38    13     9   ar
    39    17    10    1
@<TRIPOS>MOLECULE
*****
 34 39 0 0 0
SMALL
GASTEIGER

@<TRIPOS>ATOM
      1 N         140.1092  140.2764  162.4106 N.ar    1  UNL1       -0.2701
      2 C         139.7460  141.7281  162.5145 C.ar    1  UNL1        0.3532
      3 O         139.0724  142.2461  163.7507 O.2     1  UNL1       -0.2443
      4 N         140.0565  142.6617  161.3823 N.ar    1  UNL1       -0.1606
      5 N         139.8193  144.1315  161.1996 N.ar    1  UNL1       -0.1372
      6 C         140.3464  144.5219  159.8506 C.ar    1  UNL1        0.2214
      7 N         140.9093  143.2933  159.1996 N.ar    1  UNL1       -0.2032
      8 C         140.7301  142.1436  160.1462 C.ar    1  UNL1        0.1717
      9 C         141.0932  140.6920  160.0424 C.ar    1  UNL1        0.0545
     10 C         141.7585  139.8990  158.9567 C.ar    1  UNL1       -0.0126
     11 C         141.8591  138.4752  159.4180 C.ar    1  UNL1        0.0210
     12 S         141.2562  138.3883  160.7887 S.2     1  UNL1       -0.0728
     13 C         140.7828  139.7584  161.1746 C.ar    1  UNL1        0.0965
     14 C         142.4869  137.4418  158.5303 C.3     1  UNL1        0.1054
     15 N         143.0140  137.8322  157.1813 N.3     1  UNL1       -0.2682
     16 C         142.9133  139.2560  156.7201 C.3     1  UNL1        0.0771
     17 C         142.2855  140.2893  157.6077 C.3     1  UNL1        0.0441
     18 C         139.7987  139.3427  163.5429 C.3     1  UNL1        0.1400
     19 C         142.2147  139.5233  167.3351 C.ar    1  UNL1        0.1410
     20 C         142.8595  139.0798  166.0555 C.ar    1  UNL1        0.0368
     21 C         142.0542  139.0196  164.7914 C.ar    1  UNL1        0.0030
     22 C         140.6041  139.4029  164.8070 C.ar    1  UNL1        0.0282
     23 C         139.9593  139.8464  166.0866 C.ar    1  UNL1        0.1410
     24 F         138.5092  140.2297  166.1022 F       1  UNL1       -0.2043
     25 C         140.7646  139.9066  167.3507 C.ar    1  UNL1        0.0662
     26 C         142.4467  139.0524  169.8796 C.3     1  UNL1        0.2525
     27 O         143.0200  139.5836  168.5992 O.3     1  UNL1       -0.4714
     28 C         143.6417  136.7988  156.2936 C.3     1  UNL1        0.0725
     29 C         143.0931  135.4031  156.2632 C.3     1  UNL1        0.0210
     30 C         143.7270  134.3297  157.0974 C.3     1  UNL1        0.0335
     31 C         143.1784  132.9340  157.0669 C.3     1  UNL1        0.1422
     32 O         141.9959  132.6116  156.2022 O.3     1  UNL1       -0.3538
     33 C         141.3620  133.6850  155.3680 C.3     1  UNL1        0.1422
     34 C         141.9106  135.0807  155.3984 C.3     1  UNL1        0.0335
@<TRIPOS>BOND
     1    26    27    1
     2    27    19    1
     3    19    20   ar
     4    20    21   ar
     5    21    22   ar
     6    22    18    1
     7    18     1    1
     8     1     2   ar
     9     2     3    2
    10     2     4   ar
    11     4     5   ar
    12     5     6   ar
    13     6     7   ar
    14     7     8   ar
    15     8     9   ar
    16     9    10   ar
    17    10    11   ar
    18    11    12   ar
    19    12    13   ar
    20    11    14    1
    21    14    15    1
    22    15    28    1
    23    28    29    1
    24    29    30    1
    25    30    31    1
    26    31    32    1
    27    32    33    1
    28    33    34    1
    29    15    16    1
    30    16    17    1
    31    22    23   ar
    32    23    24    1
    33    23    25   ar
    34    25    19   ar
    35    13     1   ar
    36    34    29    1
    37     8     4   ar
    38    13     9   ar
    39    17    10    1
