@<TRIPOS>MOLECULE
*****
 28 29 0 0 0
SMALL
GASTEIGER

@<TRIPOS>ATOM
      1 C         138.9258  137.5362  165.3942 C.3     1  UNL1        0.0488
      2 C         139.6909  137.5716  164.1045 C.3     1  UNL1        0.0212
      3 C         141.1863  137.6879  164.1226 C.3     1  UNL1        0.0722
      4 C         143.1236  141.7112  164.6787 C.3     1  UNL1        0.1018
      5 C         143.7947  140.4767  165.2036 C.3     1  UNL1        0.0285
      6 C         143.1489  139.1356  165.0182 C.3     1  UNL1        0.0727
      7 N         141.8321  139.0290  164.3079 N.3     1  UNL1       -0.2727
      8 C         141.1610  140.2635  163.7831 C.3     1  UNL1        0.0727
      9 C         141.8068  141.6047  163.9685 C.3     1  UNL1        0.0285
     10 C         143.7694  143.0523  164.8641 C.2     1  UNL1        0.3165
     11 O         144.4257  143.3948  166.1687 O.2     1  UNL1       -0.2501
     12 O         143.7589  144.0510  163.7450 O.3     1  UNL1       -0.4485
     13 C         141.4764  145.1278  163.1276 C.3     1  UNL1        0.0513
     14 C         142.8188  145.2190  163.7908 C.3     1  UNL1        0.2086
     15 C         138.4184  138.8110  166.0005 C.3     1  UNL1        0.2054
     16 O         138.3655  138.9632  167.4918 O.3     1  UNL1       -0.4755
     17 C         139.3343  139.8725  168.1877 C.ar    1  UNL1        0.1386
     18 C         139.0704  140.3121  169.5974 C.ar    1  UNL1        0.0383
     19 C         140.0392  141.2215  170.2933 C.ar    1  UNL1        0.0230
     20 C         141.2721  141.6913  169.5796 C.ar    1  UNL1        0.1219
     21 C         141.5361  141.2517  168.1700 C.ar    1  UNL1        0.0230
     22 C         140.5672  140.3424  167.4740 C.ar    1  UNL1        0.0383
     23 S         142.2410  142.6006  170.2756 S.O2    1  UNL1        0.0572
     24 N         143.2099  143.5100  170.9715 N.3     1  UNL1       -0.2035
     25 O         143.0198  142.7455  169.0019 O.2     1  UNL1       -0.1532
     26 O         141.4621  142.4557  171.5492 O.2     1  UNL1       -0.1532
     27 H         143.9289  143.8090  170.3126 H       1  UNL1        0.1442
     28 H         143.6459  143.0122  171.7477 H       1  UNL1        0.1442
@<TRIPOS>BOND
     1    13    14    1
     2    14    12    1
     3    12    10    1
     4    10    11    2
     5    10     4    1
     6     4     5    1
     7     5     6    1
     8     6     7    1
     9     7     3    1
    10     3     2    1
    11     2     1    1
    12     1    15    1
    13    15    16    1
    14    16    17    1
    15    17    18   ar
    16    18    19   ar
    17    19    20   ar
    18    20    23    1
    19    23    24    1
    20    23    25    2
    21    23    26    2
    22    20    21   ar
    23    21    22   ar
    24     7     8    1
    25     8     9    1
    26     9     4    1
    27    22    17   ar
    28    24    27    1
    29    24    28    1
@<TRIPOS>MOLECULE
*****
 28 29 0 0 0
SMALL
GASTEIGER

@<TRIPOS>ATOM
      1 C         140.2522  138.7991  164.6092 C.3     1  UNL1        0.0488
      2 C         141.4815  138.0623  165.0518 C.3     1  UNL1        0.0212
      3 C         142.7373  138.8197  165.3668 C.3     1  UNL1        0.0722
      4 C         142.8524  141.6209  168.8867 C.3     1  UNL1        0.1018
      5 C         142.9656  142.1631  167.4927 C.3     1  UNL1        0.0285
      6 C         142.9272  141.2294  166.3194 C.3     1  UNL1        0.0727
      7 N         142.7757  139.7535  166.5401 N.3     1  UNL1       -0.2727
      8 C         142.6625  139.2113  167.9341 C.3     1  UNL1        0.0727
      9 C         142.7009  140.1450  169.1074 C.3     1  UNL1        0.0285
     10 C         142.8908  142.5547  170.0600 C.2     1  UNL1        0.3165
     11 O         144.1153  143.3806  170.3215 O.2     1  UNL1       -0.2501
     12 O         141.7047  142.6625  170.9718 O.3     1  UNL1       -0.4485
     13 C         139.4739  141.6311  170.1292 C.3     1  UNL1        0.0513
     14 C         140.3298  142.8335  170.3969 C.3     1  UNL1        0.2086
     15 C         139.0124  138.7640  165.4529 C.3     1  UNL1        0.2054
     16 O         138.1031  139.9561  165.4996 O.3     1  UNL1       -0.4755
     17 C         138.5289  141.2493  164.8702 C.ar    1  UNL1        0.1386
     18 C         137.8772  141.7170  163.6027 C.ar    1  UNL1        0.0383
     19 C         138.3031  143.0102  162.9733 C.ar    1  UNL1        0.0230
     20 C         139.3806  143.8359  163.6114 C.ar    1  UNL1        0.1219
     21 C         140.0324  143.3683  164.8788 C.ar    1  UNL1        0.0230
     22 C         139.6065  142.0750  165.5083 C.ar    1  UNL1        0.0383
     23 S         139.8065  145.1291  162.9820 S.O2    1  UNL1        0.0572
     24 N         140.2323  146.4224  162.3525 N.3     1  UNL1       -0.2035
     25 O         138.5925  145.1003  162.1015 O.2     1  UNL1       -0.1532
     26 O         141.0205  145.1578  163.8625 O.2     1  UNL1       -0.1532
     27 H         139.5505  146.6970  161.6453 H       1  UNL1        0.1442
     28 H         141.1462  146.3031  161.9155 H       1  UNL1        0.1442
@<TRIPOS>BOND
     1    13    14    1
     2    14    12    1
     3    12    10    1
     4    10    11    2
     5    10     4    1
     6     4     5    1
     7     5     6    1
     8     6     7    1
     9     7     3    1
    10     3     2    1
    11     2     1    1
    12     1    15    1
    13    15    16    1
    14    16    17    1
    15    17    18   ar
    16    18    19   ar
    17    19    20   ar
    18    20    23    1
    19    23    24    1
    20    23    25    2
    21    23    26    2
    22    20    21   ar
    23    21    22   ar
    24     7     8    1
    25     8     9    1
    26     9     4    1
    27    22    17   ar
    28    24    27    1
    29    24    28    1
@<TRIPOS>MOLECULE
*****
 28 29 0 0 0
SMALL
GASTEIGER

@<TRIPOS>ATOM
      1 C         139.6611  137.8521  164.9630 C.3     1  UNL1        0.0488
      2 C         139.4124  137.7001  163.4916 C.3     1  UNL1        0.0212
      3 C         138.4023  138.5729  162.8076 C.3     1  UNL1        0.0722
      4 C         139.2637  142.9449  162.1799 C.3     1  UNL1        0.1018
      5 C         140.3865  141.9502  162.1699 C.3     1  UNL1        0.0285
      6 C         140.0993  140.4929  162.3791 C.3     1  UNL1        0.0727
      7 N         138.6894  140.0302  162.5983 N.3     1  UNL1       -0.2727
      8 C         137.5667  141.0249  162.6083 C.3     1  UNL1        0.0727
      9 C         137.8539  142.4822  162.3991 C.3     1  UNL1        0.0285
     10 C         139.5509  144.4022  161.9706 C.2     1  UNL1        0.3165
     11 O         139.5208  144.9815  160.5874 O.2     1  UNL1       -0.2501
     12 O         139.8682  145.2802  163.1447 O.3     1  UNL1       -0.4485
     13 C         138.5882  144.8767  165.3693 C.3     1  UNL1        0.0513
     14 C         139.8246  144.7184  164.5348 C.3     1  UNL1        0.2086
     15 C         138.6164  138.4769  165.8396 C.3     1  UNL1        0.2054
     16 O         138.5756  139.9663  166.0129 O.3     1  UNL1       -0.4755
     17 C         139.4817  140.6308  167.0066 C.ar    1  UNL1        0.1386
     18 C         139.5141  140.1536  168.4283 C.ar    1  UNL1        0.0383
     19 C         140.4201  140.8182  169.4220 C.ar    1  UNL1        0.0230
     20 C         141.2938  141.9599  168.9940 C.ar    1  UNL1        0.1219
     21 C         141.2614  142.4371  167.5724 C.ar    1  UNL1        0.0230
     22 C         140.3554  141.7725  166.5786 C.ar    1  UNL1        0.0383
     23 S         142.1998  142.6244  169.9877 S.O2    1  UNL1        0.0572
     24 N         143.1059  143.2890  170.9814 N.3     1  UNL1       -0.2035
     25 O         143.2904  142.6754  168.9592 O.2     1  UNL1       -0.1532
     26 O         141.1092  142.5734  171.0162 O.2     1  UNL1       -0.1532
     27 H         144.0105  143.4723  170.5472 H       1  UNL1        0.1442
     28 H         143.2334  142.6772  171.7876 H       1  UNL1        0.1442
@<TRIPOS>BOND
     1    13    14    1
     2    14    12    1
     3    12    10    1
     4    10    11    2
     5    10     4    1
     6     4     5    1
     7     5     6    1
     8     6     7    1
     9     7     3    1
    10     3     2    1
    11     2     1    1
    12     1    15    1
    13    15    16    1
    14    16    17    1
    15    17    18   ar
    16    18    19   ar
    17    19    20   ar
    18    20    23    1
    19    23    24    1
    20    23    25    2
    21    23    26    2
    22    20    21   ar
    23    21    22   ar
    24     7     8    1
    25     8     9    1
    26     9     4    1
    27    22    17   ar
    28    24    27    1
    29    24    28    1
@<TRIPOS>MOLECULE
*****
 28 29 0 0 0
SMALL
GASTEIGER

@<TRIPOS>ATOM
      1 C         144.1722  141.1107  164.6465 C.3     1  UNL1        0.0488
      2 C         145.1426  141.3835  163.5357 C.3     1  UNL1        0.0212
      3 C         145.0359  142.6512  162.7411 C.3     1  UNL1        0.0722
      4 C         141.0656  144.7324  162.3470 C.3     1  UNL1        0.1018
      5 C         141.3786  143.5449  161.4858 C.3     1  UNL1        0.0285
      6 C         142.7021  142.8511  161.6172 C.3     1  UNL1        0.0727
      7 N         143.7125  143.3450  162.6097 N.3     1  UNL1       -0.2727
      8 C         143.3994  144.5325  163.4709 C.3     1  UNL1        0.0727
      9 C         142.0760  145.2263  163.3395 C.3     1  UNL1        0.0285
     10 C         139.7422  145.4262  162.2156 C.2     1  UNL1        0.3165
     11 O         139.6863  146.8564  161.7669 O.2     1  UNL1       -0.2501
     12 O         138.4746  144.6897  162.5330 O.3     1  UNL1       -0.4485
     13 C         138.6858  144.8722  165.1161 C.3     1  UNL1        0.0513
     14 C         138.2703  144.1019  163.8978 C.3     1  UNL1        0.2086
     15 C         142.9960  140.2100  164.4106 C.3     1  UNL1        0.2054
     16 O         141.6278  140.6300  164.8598 O.3     1  UNL1       -0.4755
     17 C         141.3782  140.9514  166.3034 C.ar    1  UNL1        0.1386
     18 C         140.8680  142.3073  166.6926 C.ar    1  UNL1        0.0383
     19 C         140.6183  142.6287  168.1363 C.ar    1  UNL1        0.0230
     20 C         140.8788  141.5943  169.1909 C.ar    1  UNL1        0.1219
     21 C         141.3890  140.2385  168.8018 C.ar    1  UNL1        0.0230
     22 C         141.6387  139.9170  167.3580 C.ar    1  UNL1        0.0383
     23 S         140.6292  141.9157  170.6346 S.O2    1  UNL1        0.0572
     24 N         140.3795  142.2372  172.0784 N.3     1  UNL1       -0.2035
     25 O         141.8337  142.8096  170.6439 O.2     1  UNL1       -0.1532
     26 O         139.4247  141.0219  170.6253 O.2     1  UNL1       -0.1532
     27 H         141.0952  142.8831  172.4116 H       1  UNL1        0.1442
     28 H         140.4134  141.3790  172.6286 H       1  UNL1        0.1442
@<TRIPOS>BOND
     1    13    14    1
     2    14    12    1
     3    12    10    1
     4    10    11    2
     5    10     4    1
     6     4     5    1
     7     5     6    1
     8     6     7    1
     9     7     3    1
    10     3     2    1
    11     2     1    1
    12     1    15    1
    13    15    16    1
    14    16    17    1
    15    17    18   ar
    16    18    19   ar
    17    19    20   ar
    18    20    23    1
    19    23    24    1
    20    23    25    2
    21    23    26    2
    22    20    21   ar
    23    21    22   ar
    24     7     8    1
    25     8     9    1
    26     9     4    1
    27    22    17   ar
    28    24    27    1
    29    24    28    1
@<TRIPOS>MOLECULE
*****
 28 29 0 0 0
SMALL
GASTEIGER

@<TRIPOS>ATOM
      1 C         144.1727  144.2416  164.9831 C.3     1  UNL1        0.0488
      2 C         143.5852  144.9700  163.8108 C.3     1  UNL1        0.0212
      3 C         142.1034  145.1884  163.7296 C.3     1  UNL1        0.0722
      4 C         139.2957  141.6797  163.9656 C.3     1  UNL1        0.1018
      5 C         139.3528  142.6715  165.0894 C.3     1  UNL1        0.0285
      6 C         140.2887  143.8410  165.0107 C.3     1  UNL1        0.0727
      7 N         141.1675  144.0188  163.8082 N.3     1  UNL1       -0.2727
      8 C         141.1104  143.0270  162.6844 C.3     1  UNL1        0.0727
      9 C         140.1745  141.8574  162.7631 C.3     1  UNL1        0.0285
     10 C         138.3598  140.5101  164.0443 C.2     1  UNL1        0.3165
     11 O         137.8738  139.8525  162.7868 O.2     1  UNL1       -0.2501
     12 O         137.9100  139.9981  165.3804 O.3     1  UNL1       -0.4485
     13 C         138.9412  137.6244  165.1512 C.3     1  UNL1        0.0513
     14 C         138.5910  138.8125  165.9974 C.3     1  UNL1        0.2086
     15 C         144.4516  142.7707  164.8889 C.3     1  UNL1        0.2054
     16 O         143.3439  141.7821  165.1025 O.3     1  UNL1       -0.4755
     17 C         142.8209  141.5290  166.4854 C.ar    1  UNL1        0.1386
     18 C         141.8390  140.4205  166.7247 C.ar    1  UNL1        0.0383
     19 C         141.3160  140.1673  168.1076 C.ar    1  UNL1        0.0230
     20 C         141.7749  141.0226  169.2512 C.ar    1  UNL1        0.1219
     21 C         142.7567  142.1311  169.0120 C.ar    1  UNL1        0.0230
     22 C         143.2798  142.3843  167.6290 C.ar    1  UNL1        0.0383
     23 S         141.2520  140.7695  170.6341 S.O2    1  UNL1        0.0572
     24 N         140.7289  140.5162  172.0170 N.3     1  UNL1       -0.2035
     25 O         140.6687  139.4661  170.1749 O.2     1  UNL1       -0.1532
     26 O         141.8352  142.0729  171.0933 O.2     1  UNL1       -0.1532
     27 H         140.2365  139.6232  172.0360 H       1  UNL1        0.1442
     28 H         140.0871  141.2641  172.2800 H       1  UNL1        0.1442
@<TRIPOS>BOND
     1    13    14    1
     2    14    12    1
     3    12    10    1
     4    10    11    2
     5    10     4    1
     6     4     5    1
     7     5     6    1
     8     6     7    1
     9     7     3    1
    10     3     2    1
    11     2     1    1
    12     1    15    1
    13    15    16    1
    14    16    17    1
    15    17    18   ar
    16    18    19   ar
    17    19    20   ar
    18    20    23    1
    19    23    24    1
    20    23    25    2
    21    23    26    2
    22    20    21   ar
    23    21    22   ar
    24     7     8    1
    25     8     9    1
    26     9     4    1
    27    22    17   ar
    28    24    27    1
    29    24    28    1
@<TRIPOS>MOLECULE
*****
 28 29 0 0 0
SMALL
GASTEIGER

@<TRIPOS>ATOM
      1 C         141.3934  137.5795  164.4172 C.3     1  UNL1        0.0488
      2 C         139.9428  137.4086  164.7585 C.3     1  UNL1        0.0212
      3 C         138.8945  138.1199  163.9554 C.3     1  UNL1        0.0722
      4 C         138.9936  142.6044  163.5957 C.3     1  UNL1        0.1018
      5 C         139.7534  141.7567  162.6189 C.3     1  UNL1        0.0285
      6 C         139.7203  140.2619  162.7388 C.3     1  UNL1        0.0727
      7 N         138.9275  139.6147  163.8355 N.3     1  UNL1       -0.2727
      8 C         138.1678  140.4625  164.8122 C.3     1  UNL1        0.0727
      9 C         138.2008  141.9573  164.6923 C.3     1  UNL1        0.0285
     10 C         139.0266  144.0993  163.4758 C.2     1  UNL1        0.3165
     11 O         138.0242  144.8046  162.6111 O.2     1  UNL1       -0.2501
     12 O         140.0620  144.8887  164.2205 O.3     1  UNL1       -0.4485
     13 C         141.6399  144.8509  162.1569 C.3     1  UNL1        0.0513
     14 C         141.4202  145.0991  163.6198 C.3     1  UNL1        0.2086
     15 C         142.2994  138.3303  165.3476 C.3     1  UNL1        0.2054
     16 O         142.2267  139.8268  165.4199 O.3     1  UNL1       -0.4755
     17 C         141.6461  140.4918  166.6325 C.ar    1  UNL1        0.1386
     18 C         142.1885  141.8111  167.0966 C.ar    1  UNL1        0.0383
     19 C         141.6079  142.4761  168.3092 C.ar    1  UNL1        0.0230
     20 C         140.4848  141.8218  169.0580 C.ar    1  UNL1        0.1219
     21 C         139.9423  140.5026  168.5940 C.ar    1  UNL1        0.0230
     22 C         140.5229  139.8375  167.3813 C.ar    1  UNL1        0.0383
     23 S         139.9042  142.4868  170.2706 S.O2    1  UNL1        0.0572
     24 N         139.3235  143.1518  171.4834 N.3     1  UNL1       -0.2035
     25 O         138.9091  141.3725  170.4052 O.2     1  UNL1       -0.1532
     26 O         140.8992  143.6011  170.1360 O.2     1  UNL1       -0.1532
     27 H         138.5539  142.5881  171.8445 H       1  UNL1        0.1442
     28 H         138.9775  144.0774  171.2307 H       1  UNL1        0.1442
@<TRIPOS>BOND
     1    13    14    1
     2    14    12    1
     3    12    10    1
     4    10    11    2
     5    10     4    1
     6     4     5    1
     7     5     6    1
     8     6     7    1
     9     7     3    1
    10     3     2    1
    11     2     1    1
    12     1    15    1
    13    15    16    1
    14    16    17    1
    15    17    18   ar
    16    18    19   ar
    17    19    20   ar
    18    20    23    1
    19    23    24    1
    20    23    25    2
    21    23    26    2
    22    20    21   ar
    23    21    22   ar
    24     7     8    1
    25     8     9    1
    26     9     4    1
    27    22    17   ar
    28    24    27    1
    29    24    28    1
@<TRIPOS>MOLECULE
*****
 28 29 0 0 0
SMALL
GASTEIGER

@<TRIPOS>ATOM
      1 C         142.3086  138.0414  165.4958 C.3     1  UNL1        0.0488
      2 C         141.6949  137.6019  164.1995 C.3     1  UNL1        0.0212
      3 C         140.2274  137.7986  163.9596 C.3     1  UNL1        0.0722
      4 C         138.7371  141.6456  162.1626 C.3     1  UNL1        0.1018
      5 C         137.7908  140.5016  162.3764 C.3     1  UNL1        0.0285
      6 C         138.2876  139.2193  162.9754 C.3     1  UNL1        0.0727
      7 N         139.7306  139.0809  163.3606 N.3     1  UNL1       -0.2727
      8 C         140.6769  140.2249  163.1468 C.3     1  UNL1        0.0727
      9 C         140.1801  141.5073  162.5478 C.3     1  UNL1        0.0285
     10 C         138.2403  142.9280  161.5636 C.2     1  UNL1        0.3165
     11 O         138.2544  143.1156  160.0754 O.2     1  UNL1       -0.2501
     12 O         137.7294  144.0227  162.4527 O.3     1  UNL1       -0.4485
     13 C         138.9625  144.4994  164.6893 C.3     1  UNL1        0.0513
     14 C         138.6915  144.8473  163.2555 C.3     1  UNL1        0.2086
     15 C         143.4586  139.0045  165.4926 C.3     1  UNL1        0.2054
     16 O         143.2018  140.4795  165.5848 O.3     1  UNL1       -0.4755
     17 C         142.4044  141.0320  166.7288 C.ar    1  UNL1        0.1386
     18 C         141.3946  142.1143  166.4858 C.ar    1  UNL1        0.0383
     19 C         140.5972  142.6667  167.6299 C.ar    1  UNL1        0.0230
     20 C         140.8096  142.1369  169.0170 C.ar    1  UNL1        0.1219
     21 C         141.8193  141.0547  169.2601 C.ar    1  UNL1        0.0230
     22 C         142.6168  140.5022  168.1160 C.ar    1  UNL1        0.0383
     23 S         140.0122  142.6893  170.1611 S.O2    1  UNL1        0.0572
     24 N         139.2148  143.2419  171.3052 N.3     1  UNL1       -0.2035
     25 O         140.1010  144.0610  169.5607 O.2     1  UNL1       -0.1532
     26 O         139.9235  141.3177  170.7616 O.2     1  UNL1       -0.1532
     27 H         139.0910  144.2465  171.1796 H       1  UNL1        0.1442
     28 H         139.7093  143.0670  172.1801 H       1  UNL1        0.1442
@<TRIPOS>BOND
     1    13    14    1
     2    14    12    1
     3    12    10    1
     4    10    11    2
     5    10     4    1
     6     4     5    1
     7     5     6    1
     8     6     7    1
     9     7     3    1
    10     3     2    1
    11     2     1    1
    12     1    15    1
    13    15    16    1
    14    16    17    1
    15    17    18   ar
    16    18    19   ar
    17    19    20   ar
    18    20    23    1
    19    23    24    1
    20    23    25    2
    21    23    26    2
    22    20    21   ar
    23    21    22   ar
    24     7     8    1
    25     8     9    1
    26     9     4    1
    27    22    17   ar
    28    24    27    1
    29    24    28    1
@<TRIPOS>MOLECULE
*****
 28 29 0 0 0
SMALL
GASTEIGER

@<TRIPOS>ATOM
      1 C         140.4445  137.3288  163.4066 C.3     1  UNL1        0.0488
      2 C         138.9893  137.6873  163.4681 C.3     1  UNL1        0.0212
      3 C         138.4409  138.7538  162.5671 C.3     1  UNL1        0.0722
      4 C         138.8524  143.0888  163.7024 C.3     1  UNL1        0.1018
      5 C         137.5114  142.5385  163.3168 C.3     1  UNL1        0.0285
      6 C         137.3742  141.0935  162.9384 C.3     1  UNL1        0.0727
      7 N         138.5781  140.1988  162.9455 N.3     1  UNL1       -0.2727
      8 C         139.9191  140.7491  163.3311 C.3     1  UNL1        0.0727
      9 C         140.0563  142.1940  163.7095 C.3     1  UNL1        0.0285
     10 C         138.9896  144.5338  164.0808 C.2     1  UNL1        0.3165
     11 O         138.5989  144.9894  165.4554 O.2     1  UNL1       -0.2501
     12 O         139.5175  145.5231  163.0845 O.3     1  UNL1       -0.4485
     13 C         142.0123  145.2777  163.7671 C.3     1  UNL1        0.0513
     14 C         140.9707  145.5108  162.7131 C.3     1  UNL1        0.2086
     15 C         141.2652  137.3066  164.6620 C.3     1  UNL1        0.2054
     16 O         141.9818  138.5453  165.1116 O.3     1  UNL1       -0.4755
     17 C         141.6807  139.1401  166.4553 C.ar    1  UNL1        0.1386
     18 C         140.3065  139.6623  166.7535 C.ar    1  UNL1        0.0383
     19 C         140.0054  140.2570  168.0972 C.ar    1  UNL1        0.0230
     20 C         141.0785  140.3295  169.1428 C.ar    1  UNL1        0.1219
     21 C         142.4527  139.8073  168.8446 C.ar    1  UNL1        0.0230
     22 C         142.7538  139.2126  167.5009 C.ar    1  UNL1        0.0383
     23 S         140.7774  140.9242  170.4865 S.O2    1  UNL1        0.0572
     24 N         140.4764  141.5190  171.8303 N.3     1  UNL1       -0.2035
     25 O         141.7538  142.0302  170.2158 O.2     1  UNL1       -0.1532
     26 O         139.8010  139.8182  170.7572 O.2     1  UNL1       -0.1532
     27 H         141.0341  142.3629  171.9613 H       1  UNL1        0.1442
     28 H         140.7048  140.8438  172.5599 H       1  UNL1        0.1442
@<TRIPOS>BOND
     1    13    14    1
     2    14    12    1
     3    12    10    1
     4    10    11    2
     5    10     4    1
     6     4     5    1
     7     5     6    1
     8     6     7    1
     9     7     3    1
    10     3     2    1
    11     2     1    1
    12     1    15    1
    13    15    16    1
    14    16    17    1
    15    17    18   ar
    16    18    19   ar
    17    19    20   ar
    18    20    23    1
    19    23    24    1
    20    23    25    2
    21    23    26    2
    22    20    21   ar
    23    21    22   ar
    24     7     8    1
    25     8     9    1
    26     9     4    1
    27    22    17   ar
    28    24    27    1
    29    24    28    1
@<TRIPOS>MOLECULE
*****
 28 29 0 0 0
SMALL
GASTEIGER

@<TRIPOS>ATOM
      1 C         137.8495  143.3717  163.6355 C.3     1  UNL1        0.0488
      2 C         138.7961  144.4490  164.0753 C.3     1  UNL1        0.0212
      3 C         139.9847  144.7947  163.2282 C.3     1  UNL1        0.0722
      4 C         143.5198  142.0147  163.0696 C.3     1  UNL1        0.1018
      5 C         142.4500  141.9282  162.0217 C.3     1  UNL1        0.0285
      6 C         141.2717  142.8549  162.0746 C.3     1  UNL1        0.0727
      7 N         141.1630  143.8680  163.1753 N.3     1  UNL1       -0.2727
      8 C         142.2328  143.9545  164.2232 C.3     1  UNL1        0.0727
      9 C         143.4111  143.0278  164.1704 C.3     1  UNL1        0.0285
     10 C         144.6981  141.0880  163.0168 C.2     1  UNL1        0.3165
     11 O         146.0910  141.6425  163.0647 O.2     1  UNL1       -0.2501
     12 O         144.4836  139.6069  162.9160 O.3     1  UNL1       -0.4485
     13 C         143.7829  139.1138  165.3687 C.3     1  UNL1        0.0513
     14 C         143.5860  138.9107  163.8956 C.3     1  UNL1        0.2086
     15 C         137.9901  141.9813  164.1808 C.3     1  UNL1        0.2054
     16 O         139.3303  141.4872  164.6386 O.3     1  UNL1       -0.4755
     17 C         139.6084  141.3217  166.1033 C.ar    1  UNL1        0.1386
     18 C         140.3238  142.4029  166.8578 C.ar    1  UNL1        0.0383
     19 C         140.6018  142.2375  168.3224 C.ar    1  UNL1        0.0230
     20 C         140.1645  140.9908  169.0327 C.ar    1  UNL1        0.1219
     21 C         139.4491  139.9096  168.2783 C.ar    1  UNL1        0.0230
     22 C         139.1710  140.0750  166.8135 C.ar    1  UNL1        0.0383
     23 S         140.4425  140.8253  170.4973 S.O2    1  UNL1        0.0572
     24 N         140.7206  140.6597  171.9621 N.3     1  UNL1       -0.2035
     25 O         141.3503  139.6703  170.1945 O.2     1  UNL1       -0.1532
     26 O         139.5347  141.9803  170.8002 O.2     1  UNL1       -0.1532
     27 H         141.3656  139.8817  172.0999 H       1  UNL1        0.1442
     28 H         139.8478  140.4691  172.4544 H       1  UNL1        0.1442
@<TRIPOS>BOND
     1    13    14    1
     2    14    12    1
     3    12    10    1
     4    10    11    2
     5    10     4    1
     6     4     5    1
     7     5     6    1
     8     6     7    1
     9     7     3    1
    10     3     2    1
    11     2     1    1
    12     1    15    1
    13    15    16    1
    14    16    17    1
    15    17    18   ar
    16    18    19   ar
    17    19    20   ar
    18    20    23    1
    19    23    24    1
    20    23    25    2
    21    23    26    2
    22    20    21   ar
    23    21    22   ar
    24     7     8    1
    25     8     9    1
    26     9     4    1
    27    22    17   ar
    28    24    27    1
    29    24    28    1
