@<TRIPOS>MOLECULE
*****
 24 25 0 0 0
SMALL
GASTEIGER

@<TRIPOS>ATOM
      1 C         140.4377  140.8078  169.2146 C.ar    1  UNL1        0.0925
      2 C         141.2364  140.6479  167.9551 C.ar    1  UNL1        0.0975
      3 N         140.4196  139.8441  166.9871 N.ar    1  UNL1       -0.2880
      4 C         140.6944  139.3754  165.5890 C.ar    1  UNL1        0.0771
      5 C         139.6657  138.5699  164.8523 C.ar    1  UNL1       -0.0051
      6 C         138.3622  138.2330  165.5137 C.ar    1  UNL1        0.0003
      7 C         138.0874  138.7017  166.9118 C.ar    1  UNL1        0.0371
      8 C         139.1161  139.5073  167.6485 C.ar    1  UNL1        0.1475
      9 N         139.1273  140.1029  169.0252 N.ar    1  UNL1       -0.2294
     10 C         140.8730  141.5435  170.4472 C.3     1  UNL1        0.1018
     11 N         140.7492  140.8919  171.7926 N.3     1  UNL1       -0.3171
     12 H         141.0892  141.5300  172.5120 H       1  UNL1        0.1192
     13 H         141.3034  140.0358  171.8080 H       1  UNL1        0.1192
     14 C         140.5080  144.1005  170.1671 C.3     1  UNL1        0.0114
     15 C         141.4320  142.9308  170.3345 C.3     1  UNL1        0.0961
     16 C         142.9152  143.1485  170.3891 C.2     1  UNL1        0.2206
     17 N         143.5080  144.0073  171.4666 N.am    1  UNL1       -0.3288
     18 O         143.8055  142.5073  169.3663 O.2     1  UNL1       -0.2753
     19 H         142.9236  144.4282  172.1379 H       1  UNL1        0.1449
     20 H         144.4814  144.1502  171.5024 H       1  UNL1        0.1449
     21 C         139.9405  138.1012  163.4541 C.3     1  UNL1        0.0204
     22 C         141.0984  137.2892  163.9539 C.3     1  UNL1        0.0044
     23 C         138.7826  138.9132  162.9543 C.3     1  UNL1        0.0044
     24 C         140.2153  137.6324  162.0560 C.3     1  UNL1        0.0044
@<TRIPOS>BOND
     1    15    14    1
     2    15    16    1
     3    16    17   am
     4    16    18    2
     5    15    10    1
     6    10    11    1
     7    10     1    1
     8     1     2   ar
     9     2     3   ar
    10     3     4   ar
    11     4     5   ar
    12     5    21    1
    13    21    22    1
    14    21    23    1
    15    21    24    1
    16     5     6   ar
    17     6     7   ar
    18     7     8   ar
    19     8     9   ar
    20     9     1   ar
    21     8     3   ar
    22    17    19    1
    23    17    20    1
    24    11    12    1
    25    11    13    1
@<TRIPOS>MOLECULE
*****
 24 25 0 0 0
SMALL
GASTEIGER

@<TRIPOS>ATOM
      1 C         142.2747  139.9165  168.7211 C.ar    1  UNL1        0.0925
      2 C         140.9389  140.1511  168.0802 C.ar    1  UNL1        0.0975
      3 N         140.9639  139.5289  166.7155 N.ar    1  UNL1       -0.2880
      4 C         139.9309  139.4461  165.6311 C.ar    1  UNL1        0.0771
      5 C         140.2491  138.7443  164.3442 C.ar    1  UNL1       -0.0051
      6 C         141.6003  138.1252  164.1417 C.ar    1  UNL1        0.0003
      7 C         142.6333  138.2080  165.2261 C.ar    1  UNL1        0.0371
      8 C         142.3152  138.9098  166.5130 C.ar    1  UNL1        0.1475
      9 N         143.1252  139.1494  167.7525 N.ar    1  UNL1       -0.2294
     10 C         142.6874  140.3695  170.0902 C.3     1  UNL1        0.1018
     11 N         143.4517  139.4426  170.9882 N.3     1  UNL1       -0.3171
     12 H         143.6475  139.9110  171.8729 H       1  UNL1        0.1192
     13 H         144.3300  139.1820  170.5397 H       1  UNL1        0.1192
     14 C         141.0395  141.9903  171.2766 C.3     1  UNL1        0.0114
     15 C         142.3358  141.7495  170.5613 C.3     1  UNL1        0.0961
     16 C         143.2805  142.8888  170.3171 C.2     1  UNL1        0.2206
     17 N         143.3251  144.0442  171.2726 N.am    1  UNL1       -0.3288
     18 O         144.1807  142.8727  169.1173 O.2     1  UNL1       -0.2753
     19 H         142.7342  144.0548  172.0600 H       1  UNL1        0.1449
     20 H         143.9451  144.7919  171.1123 H       1  UNL1        0.1449
     21 C         139.2161  138.6615  163.2597 C.3     1  UNL1        0.0204
     22 C         140.0933  137.7139  162.4965 C.3     1  UNL1        0.0044
     23 C         138.3388  139.6090  164.0229 C.3     1  UNL1        0.0044
     24 C         138.1831  138.5786  162.1753 C.3     1  UNL1        0.0044
@<TRIPOS>BOND
     1    15    14    1
     2    15    16    1
     3    16    17   am
     4    16    18    2
     5    15    10    1
     6    10    11    1
     7    10     1    1
     8     1     2   ar
     9     2     3   ar
    10     3     4   ar
    11     4     5   ar
    12     5    21    1
    13    21    22    1
    14    21    23    1
    15    21    24    1
    16     5     6   ar
    17     6     7   ar
    18     7     8   ar
    19     8     9   ar
    20     9     1   ar
    21     8     3   ar
    22    17    19    1
    23    17    20    1
    24    11    12    1
    25    11    13    1
@<TRIPOS>MOLECULE
*****
 24 25 0 0 0
SMALL
GASTEIGER

@<TRIPOS>ATOM
      1 C         140.3347  142.5220  167.7926 C.ar    1  UNL1        0.0925
      2 C         140.0744  141.0946  167.4120 C.ar    1  UNL1        0.0975
      3 N         139.6030  141.0731  165.9881 N.ar    1  UNL1       -0.2880
      4 C         139.1980  139.9485  165.0819 C.ar    1  UNL1        0.0771
      5 C         138.7619  140.2381  163.6762 C.ar    1  UNL1       -0.0051
      6 C         138.7309  141.6522  163.1768 C.ar    1  UNL1        0.0003
      7 C         139.1359  142.7767  164.0831 C.ar    1  UNL1        0.0371
      8 C         139.5719  142.4872  165.4887 C.ar    1  UNL1        0.1475
      9 N         140.0241  143.3826  166.6040 N.ar    1  UNL1       -0.2294
     10 C         140.8202  143.0040  169.1274 C.3     1  UNL1        0.1018
     11 N         140.1713  144.1895  169.7782 N.3     1  UNL1       -0.3171
     12 H         140.6239  144.3763  170.6730 H       1  UNL1        0.1192
     13 H         139.1821  143.9938  169.9318 H       1  UNL1        0.1192
     14 C         143.3181  142.2920  169.1861 C.3     1  UNL1        0.0114
     15 C         141.9548  142.3007  169.8116 C.3     1  UNL1        0.0961
     16 C         141.7260  141.6058  171.1212 C.2     1  UNL1        0.2206
     17 N         142.5686  140.4243  171.5006 N.am    1  UNL1       -0.3288
     18 O         140.6545  142.0926  172.0512 O.2     1  UNL1       -0.2753
     19 H         143.2718  140.1049  170.8901 H       1  UNL1        0.1449
     20 H         142.4184  139.9683  172.3601 H       1  UNL1        0.1449
     21 C         138.3569  139.1136  162.7698 C.3     1  UNL1        0.0204
     22 C         137.8229  140.1048  161.7787 C.3     1  UNL1        0.0044
     23 C         138.8909  138.1224  163.7609 C.3     1  UNL1        0.0044
     24 C         137.9519  137.9891  161.8635 C.3     1  UNL1        0.0044
@<TRIPOS>BOND
     1    15    14    1
     2    15    16    1
     3    16    17   am
     4    16    18    2
     5    15    10    1
     6    10    11    1
     7    10     1    1
     8     1     2   ar
     9     2     3   ar
    10     3     4   ar
    11     4     5   ar
    12     5    21    1
    13    21    22    1
    14    21    23    1
    15    21    24    1
    16     5     6   ar
    17     6     7   ar
    18     7     8   ar
    19     8     9   ar
    20     9     1   ar
    21     8     3   ar
    22    17    19    1
    23    17    20    1
    24    11    12    1
    25    11    13    1
@<TRIPOS>MOLECULE
*****
 24 25 0 0 0
SMALL
GASTEIGER

@<TRIPOS>ATOM
      1 C         139.9330  140.1763  167.9775 C.ar    1  UNL1        0.0925
      2 C         141.2808  140.2370  167.3220 C.ar    1  UNL1        0.0975
      3 N         141.1830  139.5427  165.9959 N.ar    1  UNL1       -0.2880
      4 C         142.1944  139.2933  164.9166 C.ar    1  UNL1        0.0771
      5 C         141.7975  138.5539  163.6733 C.ar    1  UNL1       -0.0051
      6 C         140.3892  138.0641  163.5093 C.ar    1  UNL1        0.0003
      7 C         139.3779  138.3136  164.5886 C.ar    1  UNL1        0.0371
      8 C         139.7748  139.0529  165.8319 C.ar    1  UNL1        0.1475
      9 N         139.0022  139.4445  167.0566 N.ar    1  UNL1       -0.2294
     10 C         139.5782  140.7472  169.3185 C.3     1  UNL1        0.1018
     11 N         138.4655  140.1410  170.1211 N.3     1  UNL1       -0.3171
     12 H         138.3625  140.6506  170.9987 H       1  UNL1        0.1192
     13 H         138.6820  139.1640  170.3187 H       1  UNL1        0.1192
     14 C         140.3219  143.2283  169.1155 C.3     1  UNL1        0.0114
     15 C         140.3362  141.9243  169.8568 C.3     1  UNL1        0.0961
     16 C         141.1085  141.7976  171.1365 C.2     1  UNL1        0.2206
     17 N         142.3274  142.6416  171.3636 N.am    1  UNL1       -0.3288
     18 O         140.6617  140.8267  172.1890 O.2     1  UNL1       -0.2753
     19 H         142.6206  143.2789  170.6728 H       1  UNL1        0.1449
     20 H         142.8343  142.5584  172.2035 H       1  UNL1        0.1449
     21 C         142.8088  138.3044  162.5940 C.3     1  UNL1        0.0204
     22 C         141.7402  137.6997  161.7325 C.3     1  UNL1        0.0044
     23 C         143.8775  138.9092  163.4554 C.3     1  UNL1        0.0044
     24 C         143.8201  138.0549  161.5146 C.3     1  UNL1        0.0044
@<TRIPOS>BOND
     1    15    14    1
     2    15    16    1
     3    16    17   am
     4    16    18    2
     5    15    10    1
     6    10    11    1
     7    10     1    1
     8     1     2   ar
     9     2     3   ar
    10     3     4   ar
    11     4     5   ar
    12     5    21    1
    13    21    22    1
    14    21    23    1
    15    21    24    1
    16     5     6   ar
    17     6     7   ar
    18     7     8   ar
    19     8     9   ar
    20     9     1   ar
    21     8     3   ar
    22    17    19    1
    23    17    20    1
    24    11    12    1
    25    11    13    1
@<TRIPOS>MOLECULE
*****
 24 25 0 0 0
SMALL
GASTEIGER

@<TRIPOS>ATOM
      1 C         138.9146  142.9370  163.7684 C.ar    1  UNL1        0.0925
      2 C         139.7435  143.1807  164.9946 C.ar    1  UNL1        0.0975
      3 N         139.6082  141.9854  165.8907 N.ar    1  UNL1       -0.2880
      4 C         140.1980  141.6646  167.2320 C.ar    1  UNL1        0.0771
      5 C         139.8753  140.3614  167.9009 C.ar    1  UNL1       -0.0051
      6 C         138.9626  139.3790  167.2285 C.ar    1  UNL1        0.0003
      7 C         138.3728  139.6998  165.8872 C.ar    1  UNL1        0.0371
      8 C         138.6956  141.0030  165.2183 C.ar    1  UNL1        0.1475
      9 N         138.2669  141.5912  163.9067 N.ar    1  UNL1       -0.2294
     10 C         138.7604  143.8747  162.6078 C.3     1  UNL1        0.1018
     11 N         137.5274  144.7201  162.4853 N.3     1  UNL1       -0.3171
     12 H         137.5902  145.2929  161.6436 H       1  UNL1        0.1192
     13 H         137.4471  145.3247  163.3028 H       1  UNL1        0.1192
     14 C         140.5018  142.7199  161.0638 C.3     1  UNL1        0.0114
     15 C         139.8391  143.9669  161.5697 C.3     1  UNL1        0.0961
     16 C         140.2552  145.3061  161.0373 C.2     1  UNL1        0.2206
     17 N         141.5799  145.4618  160.3511 N.am    1  UNL1       -0.3288
     18 O         139.3466  146.4896  161.1911 O.2     1  UNL1       -0.2753
     19 H         142.1763  144.6850  160.2501 H       1  UNL1        0.1449
     20 H         141.8530  146.3408  160.0017 H       1  UNL1        0.1449
     21 C         140.4651  140.0405  169.2423 C.3     1  UNL1        0.0204
     22 C         139.1513  140.3537  169.8948 C.3     1  UNL1        0.0044
     23 C         141.7789  139.7273  168.5897 C.3     1  UNL1        0.0044
     24 C         141.0549  139.7197  170.5836 C.3     1  UNL1        0.0044
@<TRIPOS>BOND
     1    15    14    1
     2    15    16    1
     3    16    17   am
     4    16    18    2
     5    15    10    1
     6    10    11    1
     7    10     1    1
     8     1     2   ar
     9     2     3   ar
    10     3     4   ar
    11     4     5   ar
    12     5    21    1
    13    21    22    1
    14    21    23    1
    15    21    24    1
    16     5     6   ar
    17     6     7   ar
    18     7     8   ar
    19     8     9   ar
    20     9     1   ar
    21     8     3   ar
    22    17    19    1
    23    17    20    1
    24    11    12    1
    25    11    13    1
@<TRIPOS>MOLECULE
*****
 24 25 0 0 0
SMALL
GASTEIGER

@<TRIPOS>ATOM
      1 C         142.1624  141.2129  167.6758 C.ar    1  UNL1        0.0925
      2 C         141.1381  141.4664  166.6097 C.ar    1  UNL1        0.0975
      3 N         141.1386  140.2912  165.6775 N.ar    1  UNL1       -0.2880
      4 C         140.3385  139.9868  164.4459 C.ar    1  UNL1        0.0771
      5 C         140.5629  138.7025  163.7042 C.ar    1  UNL1       -0.0051
      6 C         141.5875  137.7226  164.1942 C.ar    1  UNL1        0.0003
      7 C         142.3877  138.0271  165.4259 C.ar    1  UNL1        0.0371
      8 C         142.1632  139.3114  166.1675 C.ar    1  UNL1        0.1475
      9 N         142.7959  139.8810  167.4025 N.ar    1  UNL1       -0.2294
     10 C         142.4947  142.1302  168.8152 C.3     1  UNL1        0.1018
     11 N         143.8807  142.6879  168.9493 N.3     1  UNL1       -0.3171
     12 H         143.9278  143.2870  169.7735 H       1  UNL1        0.1192
     13 H         144.1093  143.2339  168.1186 H       1  UNL1        0.1192
     14 C         140.4452  143.5678  169.5102 C.3     1  UNL1        0.0114
     15 C         141.4411  142.4898  169.8204 C.3     1  UNL1        0.0961
     16 C         141.3834  141.7715  171.1360 C.2     1  UNL1        0.2206
     17 N         142.3477  140.6599  171.4266 N.am    1  UNL1       -0.3288
     18 O         140.3612  142.1647  172.1610 O.2     1  UNL1       -0.2753
     19 H         143.0186  140.4018  170.7538 H       1  UNL1        0.1449
     20 H         142.3098  140.1885  172.2900 H       1  UNL1        0.1449
     21 C         139.7628  138.3980  162.4725 C.3     1  UNL1        0.0204
     22 C         141.0191  138.0040  161.7538 C.3     1  UNL1        0.0044
     23 C         138.5065  138.7919  163.1911 C.3     1  UNL1        0.0044
     24 C         138.9627  138.0935  161.2408 C.3     1  UNL1        0.0044
@<TRIPOS>BOND
     1    15    14    1
     2    15    16    1
     3    16    17   am
     4    16    18    2
     5    15    10    1
     6    10    11    1
     7    10     1    1
     8     1     2   ar
     9     2     3   ar
    10     3     4   ar
    11     4     5   ar
    12     5    21    1
    13    21    22    1
    14    21    23    1
    15    21    24    1
    16     5     6   ar
    17     6     7   ar
    18     7     8   ar
    19     8     9   ar
    20     9     1   ar
    21     8     3   ar
    22    17    19    1
    23    17    20    1
    24    11    12    1
    25    11    13    1
@<TRIPOS>MOLECULE
*****
 24 25 0 0 0
SMALL
GASTEIGER

@<TRIPOS>ATOM
      1 C         141.1335  141.5483  167.6837 C.ar    1  UNL1        0.0925
      2 C         140.9539  141.9608  166.2528 C.ar    1  UNL1        0.0975
      3 N         140.0716  140.9477  165.5855 N.ar    1  UNL1       -0.2880
      4 C         139.5541  140.8367  164.1820 C.ar    1  UNL1        0.0771
      5 C         138.6708  139.6871  163.7971 C.ar    1  UNL1       -0.0051
      6 C         138.3051  138.6485  164.8157 C.ar    1  UNL1        0.0003
      7 C         138.8227  138.7594  166.2192 C.ar    1  UNL1        0.0371
      8 C         139.7060  139.9090  166.6041 C.ar    1  UNL1        0.1475
      9 N         140.3622  140.2803  167.9008 N.ar    1  UNL1       -0.2294
     10 C         141.9423  142.2761  168.7162 C.3     1  UNL1        0.1018
     11 N         143.4035  142.5246  168.4860 N.3     1  UNL1       -0.3171
     12 H         143.7926  143.0277  169.2835 H       1  UNL1        0.1192
     13 H         143.5245  143.0819  167.6404 H       1  UNL1        0.1192
     14 C         140.5816  144.0776  170.0021 C.3     1  UNL1        0.0114
     15 C         141.2899  142.7555  169.9790 C.3     1  UNL1        0.0961
     16 C         141.3457  141.9128  171.2187 C.2     1  UNL1        0.2206
     17 N         142.3475  140.8015  171.3257 N.am    1  UNL1       -0.3288
     18 O         140.3997  142.1814  172.3513 O.2     1  UNL1       -0.2753
     19 H         142.9684  140.6252  170.5823 H       1  UNL1        0.1449
     20 H         142.3841  140.2485  172.1393 H       1  UNL1        0.1449
     21 C         138.1531  139.5761  162.3936 C.3     1  UNL1        0.0204
     22 C         138.6702  138.1703  162.3141 C.3     1  UNL1        0.0044
     23 C         137.6360  140.9819  162.4731 C.3     1  UNL1        0.0044
     24 C         137.6355  139.4651  160.9902 C.3     1  UNL1        0.0044
@<TRIPOS>BOND
     1    15    14    1
     2    15    16    1
     3    16    17   am
     4    16    18    2
     5    15    10    1
     6    10    11    1
     7    10     1    1
     8     1     2   ar
     9     2     3   ar
    10     3     4   ar
    11     4     5   ar
    12     5    21    1
    13    21    22    1
    14    21    23    1
    15    21    24    1
    16     5     6   ar
    17     6     7   ar
    18     7     8   ar
    19     8     9   ar
    20     9     1   ar
    21     8     3   ar
    22    17    19    1
    23    17    20    1
    24    11    12    1
    25    11    13    1
@<TRIPOS>MOLECULE
*****
 24 25 0 0 0
SMALL
GASTEIGER

@<TRIPOS>ATOM
      1 C         142.4388  140.2488  168.4600 C.ar    1  UNL1        0.0925
      2 C         142.5576  141.4314  167.5449 C.ar    1  UNL1        0.0975
      3 N         143.1544  140.9593  166.2523 N.ar    1  UNL1       -0.2880
      4 C         143.5024  141.6815  164.9845 C.ar    1  UNL1        0.0771
      5 C         144.1005  140.9292  163.8329 C.ar    1  UNL1       -0.0051
      6 C         144.3506  139.4548  163.9490 C.ar    1  UNL1        0.0003
      7 C         144.0025  138.7326  165.2168 C.ar    1  UNL1        0.0371
      8 C         143.4044  139.4849  166.3684 C.ar    1  UNL1        0.1475
      9 N         142.9622  139.0458  167.7329 N.ar    1  UNL1       -0.2294
     10 C         141.8925  140.2662  169.8569 C.3     1  UNL1        0.1018
     11 N         142.6467  139.5938  170.9655 N.3     1  UNL1       -0.3171
     12 H         142.1341  139.7032  171.8406 H       1  UNL1        0.1192
     13 H         143.5691  140.0197  171.0563 H       1  UNL1        0.1192
     14 C         139.3271  140.4710  169.5013 C.3     1  UNL1        0.0114
     15 C         140.5921  140.9559  170.1451 C.3     1  UNL1        0.0961
     16 C         140.5567  142.1306  171.0773 C.2     1  UNL1        0.2206
     17 N         139.3943  143.0782  171.0459 N.am    1  UNL1       -0.3288
     18 O         141.6836  142.3577  172.0409 O.2     1  UNL1       -0.2753
     19 H         138.6547  142.9292  170.4134 H       1  UNL1        0.1449
     20 H         139.3711  143.8492  171.6576 H       1  UNL1        0.1449
     21 C         144.4485  141.6514  162.5650 C.3     1  UNL1        0.0204
     22 C         144.3479  140.3630  161.8036 C.3     1  UNL1        0.0044
     23 C         144.5492  142.9398  163.3265 C.3     1  UNL1        0.0044
     24 C         144.7966  142.3734  161.2972 C.3     1  UNL1        0.0044
@<TRIPOS>BOND
     1    15    14    1
     2    15    16    1
     3    16    17   am
     4    16    18    2
     5    15    10    1
     6    10    11    1
     7    10     1    1
     8     1     2   ar
     9     2     3   ar
    10     3     4   ar
    11     4     5   ar
    12     5    21    1
    13    21    22    1
    14    21    23    1
    15    21    24    1
    16     5     6   ar
    17     6     7   ar
    18     7     8   ar
    19     8     9   ar
    20     9     1   ar
    21     8     3   ar
    22    17    19    1
    23    17    20    1
    24    11    12    1
    25    11    13    1
@<TRIPOS>MOLECULE
*****
 24 25 0 0 0
SMALL
GASTEIGER

@<TRIPOS>ATOM
      1 C         142.9610  141.5127  167.8759 C.ar    1  UNL1        0.0925
      2 C         143.2614  142.0622  166.5129 C.ar    1  UNL1        0.0975
      3 N         143.1438  140.9402  165.5244 N.ar    1  UNL1       -0.2880
      4 C         143.3283  140.8898  164.0366 C.ar    1  UNL1        0.0771
      5 C         143.1396  139.5963  163.3010 C.ar    1  UNL1       -0.0051
      6 C         142.7665  138.3532  164.0530 C.ar    1  UNL1        0.0003
      7 C         142.5821  138.4036  165.5407 C.ar    1  UNL1        0.0371
      8 C         142.7707  139.6971  166.2764 C.ar    1  UNL1        0.1475
      9 N         142.6577  140.0510  167.7297 N.ar    1  UNL1       -0.2294
     10 C         142.9634  142.2886  169.1596 C.3     1  UNL1        0.1018
     11 N         144.2455  142.8606  169.6878 N.3     1  UNL1       -0.3171
     12 H         144.0633  143.3529  170.5623 H       1  UNL1        0.1192
     13 H         144.6339  143.5118  169.0055 H       1  UNL1        0.1192
     14 C         140.6323  143.4154  169.3740 C.3     1  UNL1        0.0114
     15 C         141.6838  142.4926  169.9151 C.3     1  UNL1        0.0961
     16 C         141.4556  141.7737  171.2117 C.2     1  UNL1        0.2206
     17 N         142.3372  140.6228  171.5964 N.am    1  UNL1       -0.3288
     18 O         140.3457  142.2058  172.1236 O.2     1  UNL1       -0.2753
     19 H         143.0656  140.3391  170.9979 H       1  UNL1        0.1449
     20 H         142.1874  140.1510  172.4474 H       1  UNL1        0.1449
     21 C         143.3241  139.5458  161.8131 C.3     1  UNL1        0.0204
     22 C         142.2933  138.4600  161.7222 C.3     1  UNL1        0.0044
     23 C         144.3549  140.6317  161.9041 C.3     1  UNL1        0.0044
     24 C         143.5085  139.4953  160.3254 C.3     1  UNL1        0.0044
@<TRIPOS>BOND
     1    15    14    1
     2    15    16    1
     3    16    17   am
     4    16    18    2
     5    15    10    1
     6    10    11    1
     7    10     1    1
     8     1     2   ar
     9     2     3   ar
    10     3     4   ar
    11     4     5   ar
    12     5    21    1
    13    21    22    1
    14    21    23    1
    15    21    24    1
    16     5     6   ar
    17     6     7   ar
    18     7     8   ar
    19     8     9   ar
    20     9     1   ar
    21     8     3   ar
    22    17    19    1
    23    17    20    1
    24    11    12    1
    25    11    13    1
