@<TRIPOS>MOLECULE
*****
 32 35 0 0 0
SMALL
GASTEIGER

@<TRIPOS>ATOM
      1 C         141.1606  141.8200  168.0587 C.3     1  UNL1        0.0705
      2 C         140.6035  142.5818  169.2247 C.3     1  UNL1        0.0082
      3 C         139.5441  141.9630  170.0877 C.3     1  UNL1        0.0005
      4 C         139.0417  140.5825  169.7848 C.3     1  UNL1        0.0005
      5 C         139.5987  139.8207  168.6188 C.3     1  UNL1        0.0095
      6 C         140.6581  140.4394  167.7558 C.3     1  UNL1        0.0840
      7 C         141.2152  139.6777  166.5899 C.2     1  UNL1        0.2261
      8 O         142.4592  138.8561  166.7561 O.2     1  UNL1       -0.2748
      9 N         140.5282  139.7374  165.2578 N.am    1  UNL1       -0.2817
     10 H         139.7118  140.2767  165.1487 H       1  UNL1        0.1549
     11 C         141.0853  138.9757  164.0918 C.ar    1  UNL1        0.0847
     12 C         142.4764  139.0957  163.5437 C.ar    1  UNL1        0.1110
     13 N         142.5998  138.1543  162.3824 N.ar    1  UNL1       -0.2464
     14 C         143.8233  137.9506  161.5388 C.3     1  UNL1        0.1538
     15 N         141.2851  137.4525  162.2128 N.ar    1  UNL1       -0.1723
     16 C         140.3490  137.9601  163.2693 C.ar    1  UNL1        0.0938
     17 C         138.9264  137.5280  163.4683 C.3     1  UNL1        0.0553
     18 C         142.2200  142.4387  167.1957 C.2     1  UNL1        0.1731
     19 O         143.6456  142.4655  167.6614 O.2     1  UNL1       -0.2913
     20 C         141.1214  144.2146  163.2096 C.ar    1  UNL1        0.0194
     21 C         142.5541  143.8967  163.5198 C.ar    1  UNL1        0.0016
     22 C         142.9203  143.3047  164.8484 C.ar    1  UNL1        0.0029
     23 C         141.8537  143.0307  165.8670 C.ar    1  UNL1        0.0347
     24 C         140.4210  143.3486  165.5568 C.ar    1  UNL1        0.0029
     25 C         140.0549  143.9406  164.2281 C.ar    1  UNL1        0.0016
     26 C         141.2231  145.5214  158.0946 C.3     1  UNL1        0.0515
     27 C         140.8020  145.4073  159.5297 C.ar    1  UNL1        0.0535
     28 C         141.5273  144.6525  160.6040 C.ar    1  UNL1        0.0349
     29 C         140.7552  144.8066  161.8808 C.ar    1  UNL1        0.1018
     30 N         139.5527  145.6566  161.5956 N.ar    1  UNL1       -0.1730
     31 N         139.5815  146.0278  160.1426 N.ar    1  UNL1       -0.2798
     32 H         138.9163  146.5816  159.6734 H       1  UNL1        0.1886
@<TRIPOS>BOND
     1    26    27    1
     2    27    28   ar
     3    28    29   ar
     4    29    20    1
     5    20    21   ar
     6    21    22   ar
     7    22    23   ar
     8    23    18    1
     9    18    19    2
    10     1    18    1
    11     1     2    1
    12     2     3    1
    13     3     4    1
    14     4     5    1
    15     5     6    1
    16     6     7    1
    17     7     8    2
    18     7     9   am
    19     9    11    1
    20    11    12   ar
    21    12    13   ar
    22    13    14    1
    23    13    15   ar
    24    15    16   ar
    25    16    17    1
    26    23    24   ar
    27    24    25   ar
    28    29    30   ar
    29    30    31   ar
    30    31    27   ar
    31    25    20   ar
    32     6     1    1
    33    16    11   ar
    34     9    10    1
    35    31    32    1
@<TRIPOS>MOLECULE
*****
 32 35 0 0 0
SMALL
GASTEIGER

@<TRIPOS>ATOM
      1 C         142.2438  141.1753  168.5010 C.3     1  UNL1        0.0705
      2 C         143.0705  141.8337  169.5655 C.3     1  UNL1        0.0082
      3 C         142.5597  143.0615  170.2596 C.3     1  UNL1        0.0005
      4 C         141.2224  143.6309  169.8891 C.3     1  UNL1        0.0005
      5 C         140.3957  142.9725  168.8246 C.3     1  UNL1        0.0095
      6 C         140.9064  141.7447  168.1306 C.3     1  UNL1        0.0840
      7 C         140.0798  141.0863  167.0661 C.2     1  UNL1        0.2261
      8 O         139.3020  139.8432  167.3822 O.2     1  UNL1       -0.2748
      9 N         140.0308  141.6710  165.6856 N.am    1  UNL1       -0.2817
     10 H         140.5413  142.4869  165.4782 H       1  UNL1        0.1549
     11 C         139.2042  141.0126  164.6211 C.ar    1  UNL1        0.0847
     12 C         139.4037  139.6278  164.0803 C.ar    1  UNL1        0.1110
     13 N         138.3557  139.3827  163.0355 N.ar    1  UNL1       -0.2464
     14 C         138.1849  138.1251  162.2360 C.3     1  UNL1        0.1538
     15 N         137.5084  140.6161  162.9306 N.ar    1  UNL1       -0.1723
     16 C         138.0328  141.6234  163.9106 C.ar    1  UNL1        0.0938
     17 C         137.4825  142.9998  164.1397 C.3     1  UNL1        0.0553
     18 C         142.7545  139.9475  167.8070 C.2     1  UNL1        0.1731
     19 O         143.0483  138.7068  168.5971 O.2     1  UNL1       -0.2913
     20 C         143.4051  139.9863  163.3545 C.ar    1  UNL1        0.0194
     21 C         143.6360  141.2323  164.1570 C.ar    1  UNL1        0.0016
     22 C         143.4192  141.2193  165.6412 C.ar    1  UNL1        0.0029
     23 C         142.9714  139.9604  166.3228 C.ar    1  UNL1        0.0347
     24 C         142.7404  138.7144  165.5202 C.ar    1  UNL1        0.0029
     25 C         142.9573  138.7274  164.0361 C.ar    1  UNL1        0.0016
     26 C         144.1231  141.6611  158.3986 C.3     1  UNL1        0.0515
     27 C         143.9519  140.7691  159.5923 C.ar    1  UNL1        0.0535
     28 C         143.7435  141.2202  161.0075 C.ar    1  UNL1        0.0349
     29 C         143.6219  139.9992  161.8702 C.ar    1  UNL1        0.1018
     30 N         143.7553  138.7933  160.9881 N.ar    1  UNL1       -0.1730
     31 N         143.9593  139.2691  159.5803 N.ar    1  UNL1       -0.2798
     32 H         144.0772  138.6973  158.7876 H       1  UNL1        0.1886
@<TRIPOS>BOND
     1    26    27    1
     2    27    28   ar
     3    28    29   ar
     4    29    20    1
     5    20    21   ar
     6    21    22   ar
     7    22    23   ar
     8    23    18    1
     9    18    19    2
    10     1    18    1
    11     1     2    1
    12     2     3    1
    13     3     4    1
    14     4     5    1
    15     5     6    1
    16     6     7    1
    17     7     8    2
    18     7     9   am
    19     9    11    1
    20    11    12   ar
    21    12    13   ar
    22    13    14    1
    23    13    15   ar
    24    15    16   ar
    25    16    17    1
    26    23    24   ar
    27    24    25   ar
    28    29    30   ar
    29    30    31   ar
    30    31    27   ar
    31    25    20   ar
    32     6     1    1
    33    16    11   ar
    34     9    10    1
    35    31    32    1
@<TRIPOS>MOLECULE
*****
 32 35 0 0 0
SMALL
GASTEIGER

@<TRIPOS>ATOM
      1 C         140.0354  139.9260  167.5577 C.3     1  UNL1        0.0705
      2 C         139.5771  140.1780  168.9635 C.3     1  UNL1        0.0082
      3 C         140.5612  140.1235  170.0943 C.3     1  UNL1        0.0005
      4 C         142.0035  139.8170  169.8193 C.3     1  UNL1        0.0005
      5 C         142.4618  139.5650  168.4134 C.3     1  UNL1        0.0095
      6 C         141.4779  139.6195  167.2826 C.3     1  UNL1        0.0840
      7 C         141.9362  139.3675  165.8768 C.2     1  UNL1        0.2261
      8 O         141.7632  138.0094  165.2636 O.2     1  UNL1       -0.2748
      9 N         142.5675  140.4734  165.0841 N.am    1  UNL1       -0.2817
     10 H         142.6810  141.3647  165.4866 H       1  UNL1        0.1549
     11 C         143.0258  140.2214  163.6783 C.ar    1  UNL1        0.0847
     12 C         142.1927  139.6535  162.5677 C.ar    1  UNL1        0.1110
     13 N         143.0497  139.5741  161.3392 N.ar    1  UNL1       -0.2464
     14 C         142.6195  139.0652  159.9954 C.3     1  UNL1        0.1538
     15 N         144.4126  140.0930  161.6905 N.ar    1  UNL1       -0.1723
     16 C         144.3978  140.4931  163.1361 C.ar    1  UNL1        0.0938
     17 C         145.5523  141.0645  163.9047 C.3     1  UNL1        0.0553
     18 C         139.0515  139.9805  166.4269 C.2     1  UNL1        0.1731
     19 O         137.9244  138.9926  166.3651 O.2     1  UNL1       -0.2913
     20 C         139.4806  143.1075  163.2194 C.ar    1  UNL1        0.0194
     21 C         139.0673  141.7121  162.8560 C.ar    1  UNL1        0.0016
     22 C         138.9243  140.6698  163.9251 C.ar    1  UNL1        0.0029
     23 C         139.1945  141.0229  165.3577 C.ar    1  UNL1        0.0347
     24 C         139.6078  142.4182  165.7212 C.ar    1  UNL1        0.0029
     25 C         139.7508  143.4605  164.6520 C.ar    1  UNL1        0.0016
     26 C         140.8732  145.5700  158.7609 C.3     1  UNL1        0.0515
     27 C         140.2638  145.2817  160.1009 C.ar    1  UNL1        0.0535
     28 C         140.3872  143.9986  160.8680 C.ar    1  UNL1        0.0349
     29 C         139.6237  144.1498  162.1503 C.ar    1  UNL1        0.1018
     30 N         139.0284  145.5264  162.1757 N.ar    1  UNL1       -0.1730
     31 N         139.4239  146.2259  160.9091 N.ar    1  UNL1       -0.2798
     32 H         139.1759  147.1437  160.6532 H       1  UNL1        0.1886
@<TRIPOS>BOND
     1    26    27    1
     2    27    28   ar
     3    28    29   ar
     4    29    20    1
     5    20    21   ar
     6    21    22   ar
     7    22    23   ar
     8    23    18    1
     9    18    19    2
    10     1    18    1
    11     1     2    1
    12     2     3    1
    13     3     4    1
    14     4     5    1
    15     5     6    1
    16     6     7    1
    17     7     8    2
    18     7     9   am
    19     9    11    1
    20    11    12   ar
    21    12    13   ar
    22    13    14    1
    23    13    15   ar
    24    15    16   ar
    25    16    17    1
    26    23    24   ar
    27    24    25   ar
    28    29    30   ar
    29    30    31   ar
    30    31    27   ar
    31    25    20   ar
    32     6     1    1
    33    16    11   ar
    34     9    10    1
    35    31    32    1
@<TRIPOS>MOLECULE
*****
 32 35 0 0 0
SMALL
GASTEIGER

@<TRIPOS>ATOM
      1 C         140.6414  141.3346  168.2564 C.3     1  UNL1        0.0705
      2 C         140.1906  142.1233  169.4500 C.3     1  UNL1        0.0082
      3 C         141.1831  142.9289  170.2350 C.3     1  UNL1        0.0005
      4 C         142.6262  142.9458  169.8264 C.3     1  UNL1        0.0005
      5 C         143.0770  142.1571  168.6328 C.3     1  UNL1        0.0095
      6 C         142.0846  141.3515  167.8478 C.3     1  UNL1        0.0840
      7 C         142.5354  140.5628  166.6542 C.2     1  UNL1        0.2261
      8 O         142.7100  139.0766  166.7596 O.2     1  UNL1       -0.2748
      9 N         142.8115  141.2601  165.3552 N.am    1  UNL1       -0.2817
     10 H         142.6969  142.2354  165.2860 H       1  UNL1        0.1549
     11 C         143.2623  140.4714  164.1616 C.ar    1  UNL1        0.0847
     12 C         142.4594  139.4318  163.4372 C.ar    1  UNL1        0.1110
     13 N         143.2960  138.9017  162.3107 N.ar    1  UNL1       -0.2464
     14 C         142.8847  137.8451  161.3286 C.3     1  UNL1        0.1538
     15 N         144.6160  139.6136  162.3388 N.ar    1  UNL1       -0.1723
     16 C         144.5951  140.5837  163.4827 C.ar    1  UNL1        0.0938
     17 C         145.7113  141.5045  163.8782 C.3     1  UNL1        0.0553
     18 C         139.6490  140.5291  167.4715 C.2     1  UNL1        0.1731
     19 O         138.8999  139.4106  168.1331 O.2     1  UNL1       -0.2913
     20 C         138.9191  141.4676  163.1314 C.ar    1  UNL1        0.0194
     21 C         138.8984  140.0444  163.6047 C.ar    1  UNL1        0.0016
     22 C         139.1417  139.7316  165.0514 C.ar    1  UNL1        0.0029
     23 C         139.4057  140.8420  166.0247 C.ar    1  UNL1        0.0347
     24 C         139.4265  142.2651  165.5514 C.ar    1  UNL1        0.0029
     25 C         139.1832  142.5780  164.1047 C.ar    1  UNL1        0.0016
     26 C         138.0754  140.9195  157.9478 C.3     1  UNL1        0.0515
     27 C         138.2880  141.5285  159.3020 C.ar    1  UNL1        0.0535
     28 C         138.5111  140.7777  160.5813 C.ar    1  UNL1        0.0349
     29 C         138.6758  141.7805  161.6846 C.ar    1  UNL1        0.1018
     30 N         138.5545  143.1511  161.0873 N.ar    1  UNL1       -0.1730
     31 N         138.3148  142.9954  159.6148 N.ar    1  UNL1       -0.2798
     32 H         138.1960  143.7274  158.9672 H       1  UNL1        0.1886
@<TRIPOS>BOND
     1    26    27    1
     2    27    28   ar
     3    28    29   ar
     4    29    20    1
     5    20    21   ar
     6    21    22   ar
     7    22    23   ar
     8    23    18    1
     9    18    19    2
    10     1    18    1
    11     1     2    1
    12     2     3    1
    13     3     4    1
    14     4     5    1
    15     5     6    1
    16     6     7    1
    17     7     8    2
    18     7     9   am
    19     9    11    1
    20    11    12   ar
    21    12    13   ar
    22    13    14    1
    23    13    15   ar
    24    15    16   ar
    25    16    17    1
    26    23    24   ar
    27    24    25   ar
    28    29    30   ar
    29    30    31   ar
    30    31    27   ar
    31    25    20   ar
    32     6     1    1
    33    16    11   ar
    34     9    10    1
    35    31    32    1
@<TRIPOS>MOLECULE
*****
 32 35 0 0 0
SMALL
GASTEIGER

@<TRIPOS>ATOM
      1 C         143.6287  142.1847  163.0482 C.3     1  UNL1        0.0705
      2 C         144.3678  143.3492  162.4586 C.3     1  UNL1        0.0082
      3 C         144.0032  144.7486  162.8573 C.3     1  UNL1        0.0005
      4 C         142.8996  144.9834  163.8457 C.3     1  UNL1        0.0005
      5 C         142.1605  143.8189  164.4354 C.3     1  UNL1        0.0095
      6 C         142.5251  142.4196  164.0367 C.3     1  UNL1        0.0840
      7 C         141.7860  141.2550  164.6263 C.2     1  UNL1        0.2261
      8 O         142.4121  140.4478  165.7248 O.2     1  UNL1       -0.2748
      9 N         140.4210  140.8977  164.1176 N.am    1  UNL1       -0.2817
     10 H         140.0101  141.4275  163.3967 H       1  UNL1        0.1549
     11 C         139.6819  139.7332  164.7073 C.ar    1  UNL1        0.0847
     12 C         138.7576  139.7818  165.8876 C.ar    1  UNL1        0.1110
     13 N         138.2419  138.3942  166.1300 N.ar    1  UNL1       -0.2464
     14 C         137.2880  137.9848  167.2128 C.3     1  UNL1        0.1538
     15 N         138.8474  137.4880  165.0994 N.ar    1  UNL1       -0.1723
     16 C         139.7374  138.3156  164.2201 C.ar    1  UNL1        0.0938
     17 C         140.5417  137.8136  163.0577 C.3     1  UNL1        0.0553
     18 C         143.9933  140.7854  162.6495 C.2     1  UNL1        0.1731
     19 O         145.0828  140.0573  163.3795 O.2     1  UNL1       -0.2913
     20 C         141.8183  138.7717  159.2637 C.ar    1  UNL1        0.0194
     21 C         141.4296  140.1576  159.6858 C.ar    1  UNL1        0.0016
     22 C         142.1546  140.8288  160.8144 C.ar    1  UNL1        0.0029
     23 C         143.2683  140.1141  161.5209 C.ar    1  UNL1        0.0347
     24 C         143.6569  138.7283  161.0987 C.ar    1  UNL1        0.0029
     25 C         142.9319  138.0570  159.9701 C.ar    1  UNL1        0.0016
     26 C         140.8180  136.0550  154.8478 C.3     1  UNL1        0.0515
     27 C         140.6335  136.8516  156.1052 C.ar    1  UNL1        0.0535
     28 C         141.7283  137.3567  156.9976 C.ar    1  UNL1        0.0349
     29 C         141.0933  138.1004  158.1350 C.ar    1  UNL1        0.1018
     30 N         139.6060  138.0549  157.9456 N.ar    1  UNL1       -0.1730
     31 N         139.3218  137.2832  156.6912 N.ar    1  UNL1       -0.2798
     32 H         138.4308  137.0932  156.3180 H       1  UNL1        0.1886
@<TRIPOS>BOND
     1    26    27    1
     2    27    28   ar
     3    28    29   ar
     4    29    20    1
     5    20    21   ar
     6    21    22   ar
     7    22    23   ar
     8    23    18    1
     9    18    19    2
    10     1    18    1
    11     1     2    1
    12     2     3    1
    13     3     4    1
    14     4     5    1
    15     5     6    1
    16     6     7    1
    17     7     8    2
    18     7     9   am
    19     9    11    1
    20    11    12   ar
    21    12    13   ar
    22    13    14    1
    23    13    15   ar
    24    15    16   ar
    25    16    17    1
    26    23    24   ar
    27    24    25   ar
    28    29    30   ar
    29    30    31   ar
    30    31    27   ar
    31    25    20   ar
    32     6     1    1
    33    16    11   ar
    34     9    10    1
    35    31    32    1
@<TRIPOS>MOLECULE
*****
 32 35 0 0 0
SMALL
GASTEIGER

@<TRIPOS>ATOM
      1 C         141.1633  140.4019  168.7360 C.3     1  UNL1        0.0705
      2 C         141.7888  139.5568  169.8058 C.3     1  UNL1        0.0082
      3 C         143.0223  140.0344  170.5134 C.3     1  UNL1        0.0005
      4 C         143.6301  141.3570  170.1511 C.3     1  UNL1        0.0005
      5 C         143.0045  142.2021  169.0813 C.3     1  UNL1        0.0095
      6 C         141.7711  141.7246  168.3737 C.3     1  UNL1        0.0840
      7 C         141.1455  142.5696  167.3039 C.2     1  UNL1        0.2261
      8 O         139.9240  143.3845  167.6104 O.2     1  UNL1       -0.2748
      9 N         141.7414  142.5998  165.9277 N.am    1  UNL1       -0.2817
     10 H         142.5432  142.0650  165.7266 H       1  UNL1        0.1549
     11 C         141.1158  143.4449  164.8579 C.ar    1  UNL1        0.0847
     12 C         139.6760  143.4131  164.4385 C.ar    1  UNL1        0.1110
     13 N         139.4905  144.4187  163.3411 N.ar    1  UNL1       -0.2464
     14 C         138.2055  144.7183  162.6277 C.3     1  UNL1        0.1538
     15 N         140.8157  145.0720  163.0822 N.ar    1  UNL1       -0.1723
     16 C         141.8202  144.4702  164.0197 C.ar    1  UNL1        0.0938
     17 C         143.2739  144.8305  164.1041 C.3     1  UNL1        0.0553
     18 C         139.9299  139.9244  168.0284 C.2     1  UNL1        0.1731
     19 O         138.6597  139.7102  168.7971 O.2     1  UNL1       -0.2913
     20 C         140.0401  139.1341  163.5998 C.ar    1  UNL1        0.0194
     21 C         141.2254  138.7908  164.4526 C.ar    1  UNL1        0.0016
     22 C         141.1886  139.0542  165.9288 C.ar    1  UNL1        0.0029
     23 C         139.9666  139.6609  166.5522 C.ar    1  UNL1        0.0347
     24 C         138.7814  140.0043  165.6993 C.ar    1  UNL1        0.0029
     25 C         138.8182  139.7408  164.2231 C.ar    1  UNL1        0.0016
     26 C         141.7684  138.5451  158.6452 C.3     1  UNL1        0.0515
     27 C         140.8713  138.5999  159.8461 C.ar    1  UNL1        0.0535
     28 C         141.2923  138.9336  161.2466 C.ar    1  UNL1        0.0349
     29 C         140.0769  138.8707  162.1235 C.ar    1  UNL1        0.1018
     30 N         138.9047  138.4980  161.2649 N.ar    1  UNL1       -0.1730
     31 N         139.3956  138.3307  159.8575 N.ar    1  UNL1       -0.2798
     32 H         138.8459  138.0870  159.0780 H       1  UNL1        0.1886
@<TRIPOS>BOND
     1    26    27    1
     2    27    28   ar
     3    28    29   ar
     4    29    20    1
     5    20    21   ar
     6    21    22   ar
     7    22    23   ar
     8    23    18    1
     9    18    19    2
    10     1    18    1
    11     1     2    1
    12     2     3    1
    13     3     4    1
    14     4     5    1
    15     5     6    1
    16     6     7    1
    17     7     8    2
    18     7     9   am
    19     9    11    1
    20    11    12   ar
    21    12    13   ar
    22    13    14    1
    23    13    15   ar
    24    15    16   ar
    25    16    17    1
    26    23    24   ar
    27    24    25   ar
    28    29    30   ar
    29    30    31   ar
    30    31    27   ar
    31    25    20   ar
    32     6     1    1
    33    16    11   ar
    34     9    10    1
    35    31    32    1
@<TRIPOS>MOLECULE
*****
 32 35 0 0 0
SMALL
GASTEIGER

@<TRIPOS>ATOM
      1 C         140.3933  143.9023  163.2747 C.3     1  UNL1        0.0705
      2 C         141.1164  145.0098  162.5671 C.3     1  UNL1        0.0082
      3 C         141.5262  144.8423  161.1339 C.3     1  UNL1        0.0005
      4 C         141.2129  143.5675  160.4083 C.3     1  UNL1        0.0005
      5 C         140.4898  142.4600  161.1158 C.3     1  UNL1        0.0095
      6 C         140.0800  142.6274  162.5489 C.3     1  UNL1        0.0840
      7 C         139.3569  141.5199  163.2565 C.2     1  UNL1        0.2261
      8 O         137.8610  141.4348  163.1844 O.2     1  UNL1       -0.2748
      9 N         140.1295  140.4976  164.0361 N.am    1  UNL1       -0.2817
     10 H         141.1113  140.5535  164.0834 H       1  UNL1        0.1549
     11 C         139.4064  139.3902  164.7436 C.ar    1  UNL1        0.0847
     12 C         138.5144  139.5427  165.9398 C.ar    1  UNL1        0.1110
     13 N         138.0050  138.1825  166.3147 N.ar    1  UNL1       -0.2464
     14 C         137.0807  137.8703  167.4541 C.3     1  UNL1        0.1538
     15 N         138.5823  137.1893  165.3501 N.ar    1  UNL1       -0.1723
     16 C         139.4484  137.9357  164.3791 C.ar    1  UNL1        0.0938
     17 C         140.2208  137.3334  163.2431 C.3     1  UNL1        0.0553
     18 C         139.9835  144.0697  164.7078 C.2     1  UNL1        0.1731
     19 O         138.9498  145.0917  165.0779 O.2     1  UNL1       -0.2913
     20 C         141.8550  141.5055  167.8973 C.ar    1  UNL1        0.0194
     21 C         142.6561  141.9126  166.6963 C.ar    1  UNL1        0.0016
     22 C         142.0323  142.7673  165.6332 C.ar    1  UNL1        0.0029
     23 C         140.6073  143.2149  165.7710 C.ar    1  UNL1        0.0347
     24 C         139.8061  142.8079  166.9720 C.ar    1  UNL1        0.0029
     25 C         140.4300  141.9532  168.0351 C.ar    1  UNL1        0.0016
     26 C         143.4283  137.3037  170.6813 C.3     1  UNL1        0.0515
     27 C         143.2020  138.7194  170.2401 C.ar    1  UNL1        0.0535
     28 C         142.4624  139.1516  169.0088 C.ar    1  UNL1        0.0349
     29 C         142.4788  140.6508  168.9605 C.ar    1  UNL1        0.1018
     30 N         143.2285  141.1451  170.1619 N.ar    1  UNL1       -0.1730
     31 N         143.6754  139.9515  170.9528 N.ar    1  UNL1       -0.2798
     32 H         144.1893  139.9729  171.7923 H       1  UNL1        0.1886
@<TRIPOS>BOND
     1    26    27    1
     2    27    28   ar
     3    28    29   ar
     4    29    20    1
     5    20    21   ar
     6    21    22   ar
     7    22    23   ar
     8    23    18    1
     9    18    19    2
    10     1    18    1
    11     1     2    1
    12     2     3    1
    13     3     4    1
    14     4     5    1
    15     5     6    1
    16     6     7    1
    17     7     8    2
    18     7     9   am
    19     9    11    1
    20    11    12   ar
    21    12    13   ar
    22    13    14    1
    23    13    15   ar
    24    15    16   ar
    25    16    17    1
    26    23    24   ar
    27    24    25   ar
    28    29    30   ar
    29    30    31   ar
    30    31    27   ar
    31    25    20   ar
    32     6     1    1
    33    16    11   ar
    34     9    10    1
    35    31    32    1
@<TRIPOS>MOLECULE
*****
 32 35 0 0 0
SMALL
GASTEIGER

@<TRIPOS>ATOM
      1 C         139.5647  138.5323  164.4094 C.3     1  UNL1        0.0705
      2 C         138.5692  137.7837  165.2452 C.3     1  UNL1        0.0082
      3 C         138.1414  138.3332  166.5738 C.3     1  UNL1        0.0005
      4 C         138.7091  139.6312  167.0665 C.3     1  UNL1        0.0005
      5 C         139.7046  140.3798  166.2306 C.3     1  UNL1        0.0095
      6 C         140.1324  139.8304  164.9021 C.3     1  UNL1        0.0840
      7 C         141.1278  140.5790  164.0662 C.2     1  UNL1        0.2261
      8 O         142.5849  140.2312  164.1442 O.2     1  UNL1       -0.2748
      9 N         140.6662  141.6753  163.1525 N.am    1  UNL1       -0.2817
     10 H         139.7099  141.9035  163.1013 H       1  UNL1        0.1549
     11 C         141.6617  142.4238  162.3166 C.ar    1  UNL1        0.0847
     12 C         142.2273  141.9717  161.0029 C.ar    1  UNL1        0.1110
     13 N         143.1815  143.0244  160.5221 N.ar    1  UNL1       -0.2464
     14 C         143.9726  142.9818  159.2484 C.3     1  UNL1        0.1538
     15 N         143.2057  144.1272  161.5385 N.ar    1  UNL1       -0.1723
     16 C         142.2664  143.7560  162.6476 C.ar    1  UNL1        0.0938
     17 C         141.9818  144.5736  163.8726 C.3     1  UNL1        0.0553
     18 C         139.9925  137.9828  163.0808 C.2     1  UNL1        0.1731
     19 O         140.9019  136.7915  163.0196 O.2     1  UNL1       -0.2913
     20 C         138.5474  139.9082  159.2789 C.ar    1  UNL1        0.0194
     21 C         137.6397  139.8265  160.4702 C.ar    1  UNL1        0.0016
     22 C         138.1214  139.1847  161.7375 C.ar    1  UNL1        0.0029
     23 C         139.5108  138.6246  161.8135 C.ar    1  UNL1        0.0347
     24 C         140.4186  138.7063  160.6222 C.ar    1  UNL1        0.0029
     25 C         139.9369  139.3481  159.3549 C.ar    1  UNL1        0.0016
     26 C         136.9326  143.5122  155.7740 C.3     1  UNL1        0.0515
     27 C         137.3235  142.2066  156.4006 C.ar    1  UNL1        0.0535
     28 C         137.7809  142.0096  157.8154 C.ar    1  UNL1        0.0349
     29 C         138.0658  140.5500  158.0116 C.ar    1  UNL1        0.1018
     30 N         137.7844  139.8449  156.7179 N.ar    1  UNL1       -0.1730
     31 N         137.3257  140.8687  155.7222 N.ar    1  UNL1       -0.2798
     32 H         137.0707  140.6934  154.7876 H       1  UNL1        0.1886
@<TRIPOS>BOND
     1    26    27    1
     2    27    28   ar
     3    28    29   ar
     4    29    20    1
     5    20    21   ar
     6    21    22   ar
     7    22    23   ar
     8    23    18    1
     9    18    19    2
    10     1    18    1
    11     1     2    1
    12     2     3    1
    13     3     4    1
    14     4     5    1
    15     5     6    1
    16     6     7    1
    17     7     8    2
    18     7     9   am
    19     9    11    1
    20    11    12   ar
    21    12    13   ar
    22    13    14    1
    23    13    15   ar
    24    15    16   ar
    25    16    17    1
    26    23    24   ar
    27    24    25   ar
    28    29    30   ar
    29    30    31   ar
    30    31    27   ar
    31    25    20   ar
    32     6     1    1
    33    16    11   ar
    34     9    10    1
    35    31    32    1
@<TRIPOS>MOLECULE
*****
 32 35 0 0 0
SMALL
GASTEIGER

@<TRIPOS>ATOM
      1 C         143.7334  140.1407  164.3673 C.3     1  UNL1        0.0705
      2 C         144.1434  138.9725  165.2142 C.3     1  UNL1        0.0082
      3 C         143.4553  138.7163  166.5222 C.3     1  UNL1        0.0005
      4 C         142.3573  139.6283  166.9833 C.3     1  UNL1        0.0005
      5 C         141.9473  140.7965  166.1365 C.3     1  UNL1        0.0095
      6 C         142.6353  141.0527  164.8285 C.3     1  UNL1        0.0840
      7 C         142.2254  142.2209  163.9816 C.2     1  UNL1        0.2261
      8 O         143.0309  143.4861  164.0084 O.2     1  UNL1       -0.2748
      9 N         141.0100  142.1240  163.1079 N.am    1  UNL1       -0.2817
     10 H         140.4813  141.2937  163.0903 H       1  UNL1        0.1549
     11 C         140.6000  143.2922  162.2610 C.ar    1  UNL1        0.0847
     12 C         140.9014  143.4730  160.8027 C.ar    1  UNL1        0.1110
     13 N         140.3043  144.7772  160.3641 N.ar    1  UNL1       -0.2464
     14 C         140.3667  145.3547  158.9812 C.3     1  UNL1        0.1538
     15 N         139.6339  145.4026  161.5513 N.ar    1  UNL1       -0.1723
     16 C         139.8166  144.4848  162.7236 C.ar    1  UNL1        0.0938
     17 C         139.3057  144.7186  164.1144 C.3     1  UNL1        0.0553
     18 C         144.4214  140.3970  163.0593 C.2     1  UNL1        0.1731
     19 O         145.6268  141.2883  163.0078 O.2     1  UNL1       -0.2913
     20 C         142.8694  138.4918  159.2895 C.ar    1  UNL1        0.0194
     21 C         143.1992  137.6401  160.4793 C.ar    1  UNL1        0.0016
     22 C         143.7166  138.2752  161.7359 C.ar    1  UNL1        0.0029
     23 C         143.9041  139.7619  161.8026 C.ar    1  UNL1        0.0347
     24 C         143.5743  140.6136  160.6127 C.ar    1  UNL1        0.0029
     25 C         143.0569  139.9786  159.3562 C.ar    1  UNL1        0.0016
     26 C         139.6365  136.9050  155.4279 C.3     1  UNL1        0.0515
     27 C         140.8660  137.1274  156.2579 C.ar    1  UNL1        0.0535
     28 C         140.9318  137.8845  157.5511 C.ar    1  UNL1        0.0349
     29 C         142.3521  137.8568  158.0328 C.ar    1  UNL1        0.1018
     30 N         143.1641  137.0826  157.0373 N.ar    1  UNL1       -0.1730
     31 N         142.2457  136.6318  155.9403 N.ar    1  UNL1       -0.2798
     32 H         142.5033  136.1034  155.1505 H       1  UNL1        0.1886
@<TRIPOS>BOND
     1    26    27    1
     2    27    28   ar
     3    28    29   ar
     4    29    20    1
     5    20    21   ar
     6    21    22   ar
     7    22    23   ar
     8    23    18    1
     9    18    19    2
    10     1    18    1
    11     1     2    1
    12     2     3    1
    13     3     4    1
    14     4     5    1
    15     5     6    1
    16     6     7    1
    17     7     8    2
    18     7     9   am
    19     9    11    1
    20    11    12   ar
    21    12    13   ar
    22    13    14    1
    23    13    15   ar
    24    15    16   ar
    25    16    17    1
    26    23    24   ar
    27    24    25   ar
    28    29    30   ar
    29    30    31   ar
    30    31    27   ar
    31    25    20   ar
    32     6     1    1
    33    16    11   ar
    34     9    10    1
    35    31    32    1
