@<TRIPOS>MOLECULE
*****
 25 27 0 0 0
SMALL
GASTEIGER

@<TRIPOS>ATOM
      1 C         140.1595  143.2286  164.1282 C.2     1  UNL1        0.0596
      2 C         140.8754  142.8282  162.8723 C.2     1  UNL1        0.0324
      3 C         140.7228  143.6509  161.6273 C.2     1  UNL1        0.0889
      4 N         141.3005  143.5048  160.2508 N.2     1  UNL1       -0.2236
      5 C         140.7890  144.6375  159.4109 C.2     1  UNL1        0.1859
      6 N         139.8952  145.4836  160.2684 N.2     1  UNL1       -0.2387
      7 C         139.8543  144.8738  161.6383 C.3     1  UNL1        0.1679
      8 C         139.1384  145.2741  162.8941 C.2     1  UNL1        0.0164
      9 C         139.2910  144.4515  164.1391 C.2     1  UNL1        0.0690
     10 CL        138.5751  144.8519  165.3950 Cl      1  UNL1       -0.0812
     11 C         138.2412  140.9923  164.6929 C.3     1  UNL1        0.0229
     12 C         139.3529  141.2877  165.6556 C.3     1  UNL1        0.0889
     13 C         139.5055  140.4651  166.9006 C.3     1  UNL1        0.0929
     14 N         140.6173  140.7606  167.8632 N.3     1  UNL1       -0.2568
     15 C         141.5764  141.8788  167.5809 C.3     1  UNL1        0.0946
     16 C         141.4238  142.7014  166.3359 C.3     1  UNL1        0.1081
     17 N         140.3121  142.4059  165.3733 N.pl3   1  UNL1       -0.3056
     18 C         140.7698  139.9380  169.1081 C.3     1  UNL1        0.1796
     19 C         140.7210  140.5983  170.4541 C.1     1  UNL1        0.0912
     20 N         140.6721  141.2585  171.8001 N.1     1  UNL1       -0.1944
     21 S         141.1142  144.8814  157.9671 S.3     1  UNL1       -0.0777
     22 C         140.0247  144.8469  156.9367 C.3     1  UNL1        0.0461
     23 C         140.1005  146.3393  156.8065 C.3     1  UNL1        0.0113
     24 C         139.9488  143.3545  157.0668 C.3     1  UNL1        0.0113
     25 C         138.9351  144.8124  155.9063 C.3     1  UNL1        0.0113
@<TRIPOS>BOND
     1    12    11    1
     2    12    13    1
     3    13    14    1
     4    14    18    1
     5    18    19    1
     6    19    20    3
     7    14    15    1
     8    15    16    1
     9    16    17    1
    10    17     1    1
    11     1     2    2
    12     2     3    1
    13     3     4    2
    14     4     5    1
    15     5    21    1
    16    21    22    1
    17    22    23    1
    18    22    24    1
    19    22    25    1
    20     5     6    2
    21     6     7    1
    22     7     8    1
    23     8     9    2
    24     9    10    1
    25    17    12    1
    26     9     1    1
    27     7     3    1
@<TRIPOS>MOLECULE
*****
 25 27 0 0 0
SMALL
GASTEIGER

@<TRIPOS>ATOM
      1 C         140.2030  139.4650  164.5629 C.2     1  UNL1        0.0596
      2 C         140.6569  140.4441  163.5210 C.2     1  UNL1        0.0324
      3 C         140.2181  140.2801  162.0960 C.2     1  UNL1        0.0889
      4 N         140.5023  141.0809  160.8599 N.2     1  UNL1       -0.2236
      5 C         139.7853  140.4328  159.7128 C.2     1  UNL1        0.1859
      6 N         139.0581  139.2314  160.2400 N.2     1  UNL1       -0.2387
      7 C         139.3256  139.1371  161.7129 C.3     1  UNL1        0.1679
      8 C         138.8717  138.1580  162.7547 C.2     1  UNL1        0.0164
      9 C         139.3104  138.3220  164.1797 C.2     1  UNL1        0.0690
     10 CL        138.8565  137.3429  165.2216 Cl      1  UNL1       -0.0812
     11 C         142.9224  138.5255  165.4127 C.3     1  UNL1        0.0229
     12 C         142.0014  139.1592  166.4129 C.3     1  UNL1        0.0889
     13 C         142.4401  139.3232  167.8379 C.3     1  UNL1        0.0929
     14 N         141.5191  139.9569  168.8379 N.3     1  UNL1       -0.2568
     15 C         140.1594  140.4267  168.4130 C.3     1  UNL1        0.0946
     16 C         139.7207  140.2627  166.9880 C.3     1  UNL1        0.1081
     17 N         140.6417  139.6290  165.9879 N.pl3   1  UNL1       -0.3056
     18 C         141.9579  140.1209  170.2629 C.3     1  UNL1        0.1796
     19 C         141.2829  141.1298  171.1442 C.1     1  UNL1        0.0912
     20 N         140.6080  142.1386  172.0255 N.1     1  UNL1       -0.1944
     21 S         139.7941  140.9033  158.2886 S.3     1  UNL1       -0.0777
     22 C         138.4995  141.1261  157.5643 C.3     1  UNL1        0.0461
     23 C         138.2348  142.3365  158.4098 C.3     1  UNL1        0.0113
     24 C         138.7643  139.9157  156.7188 C.3     1  UNL1        0.0113
     25 C         137.2050  141.3488  156.8401 C.3     1  UNL1        0.0113
@<TRIPOS>BOND
     1    12    11    1
     2    12    13    1
     3    13    14    1
     4    14    18    1
     5    18    19    1
     6    19    20    3
     7    14    15    1
     8    15    16    1
     9    16    17    1
    10    17     1    1
    11     1     2    2
    12     2     3    1
    13     3     4    2
    14     4     5    1
    15     5    21    1
    16    21    22    1
    17    22    23    1
    18    22    24    1
    19    22    25    1
    20     5     6    2
    21     6     7    1
    22     7     8    1
    23     8     9    2
    24     9    10    1
    25    17    12    1
    26     9     1    1
    27     7     3    1
@<TRIPOS>MOLECULE
*****
 25 27 0 0 0
SMALL
GASTEIGER

@<TRIPOS>ATOM
      1 C         140.5956  139.4446  164.3785 C.2     1  UNL1        0.0596
      2 C         141.2270  139.9807  163.1278 C.2     1  UNL1        0.0324
      3 C         140.7804  139.4773  161.7872 C.2     1  UNL1        0.0889
      4 N         141.2149  139.8165  160.3921 N.2     1  UNL1       -0.2236
      5 C         140.4056  138.9868  159.4400 C.2     1  UNL1        0.1859
      6 N         139.4709  138.1349  160.2466 N.2     1  UNL1       -0.2387
      7 C         139.7025  138.4381  161.6973 C.3     1  UNL1        0.1679
      8 C         139.0712  137.9021  162.9479 C.2     1  UNL1        0.0164
      9 C         139.5178  138.4054  164.2885 C.2     1  UNL1        0.0690
     10 CL        138.8865  137.8693  165.5392 Cl      1  UNL1       -0.0812
     11 C         142.9202  138.1533  165.7672 C.3     1  UNL1        0.0229
     12 C         142.2045  139.3023  166.4136 C.3     1  UNL1        0.0889
     13 C         142.6511  139.8056  167.7542 C.3     1  UNL1        0.0929
     14 N         141.9354  140.9545  168.4004 N.3     1  UNL1       -0.2568
     15 C         140.7731  141.6002  167.7060 C.3     1  UNL1        0.0946
     16 C         140.3265  141.0969  166.3654 C.3     1  UNL1        0.1081
     17 N         141.0422  139.9479  165.7192 N.pl3   1  UNL1       -0.3056
     18 C         142.3820  141.4578  169.7410 C.3     1  UNL1        0.1796
     19 C         141.3661  141.7985  170.7907 C.1     1  UNL1        0.0912
     20 N         140.3502  142.1391  171.8405 N.1     1  UNL1       -0.1944
     21 S         140.5122  139.0056  157.9439 S.3     1  UNL1       -0.0777
     22 C         141.0076  137.7937  157.2120 C.3     1  UNL1        0.0461
     23 C         139.6298  137.5594  156.6673 C.3     1  UNL1        0.0113
     24 C         142.3854  138.0280  157.7567 C.3     1  UNL1        0.0113
     25 C         141.5031  136.5818  156.4801 C.3     1  UNL1        0.0113
@<TRIPOS>BOND
     1    12    11    1
     2    12    13    1
     3    13    14    1
     4    14    18    1
     5    18    19    1
     6    19    20    3
     7    14    15    1
     8    15    16    1
     9    16    17    1
    10    17     1    1
    11     1     2    2
    12     2     3    1
    13     3     4    2
    14     4     5    1
    15     5    21    1
    16    21    22    1
    17    22    23    1
    18    22    24    1
    19    22    25    1
    20     5     6    2
    21     6     7    1
    22     7     8    1
    23     8     9    2
    24     9    10    1
    25    17    12    1
    26     9     1    1
    27     7     3    1
@<TRIPOS>MOLECULE
*****
 25 27 0 0 0
SMALL
GASTEIGER

@<TRIPOS>ATOM
      1 C         142.9622  142.1960  164.3274 C.2     1  UNL1        0.0596
      2 C         141.7777  142.8916  163.7245 C.2     1  UNL1        0.0324
      3 C         141.8660  143.4576  162.3382 C.2     1  UNL1        0.0889
      4 N         140.8708  144.1903  161.4881 N.2     1  UNL1       -0.2236
      5 C         141.5284  144.5137  160.1793 C.2     1  UNL1        0.1859
      6 N         142.9299  143.9809  160.2205 N.2     1  UNL1       -0.2387
      7 C         143.1386  143.3281  161.5548 C.3     1  UNL1        0.1679
      8 C         144.3230  142.6326  162.1577 C.2     1  UNL1        0.0164
      9 C         144.2347  142.0665  163.5440 C.2     1  UNL1        0.0690
     10 CL        145.4192  141.3710  164.1468 Cl      1  UNL1       -0.0812
     11 C         142.2588  139.3070  164.7260 C.3     1  UNL1        0.0229
     12 C         142.5223  140.1854  165.9130 C.3     1  UNL1        0.0889
     13 C         142.4341  139.6194  167.2993 C.3     1  UNL1        0.0929
     14 N         142.6976  140.4978  168.4863 N.3     1  UNL1       -0.2568
     15 C         143.0492  141.9423  168.2870 C.3     1  UNL1        0.0946
     16 C         143.1375  142.5084  166.9007 C.3     1  UNL1        0.1081
     17 N         142.8740  141.6299  165.7137 N.pl3   1  UNL1       -0.3056
     18 C         142.6093  139.9317  169.8725 C.3     1  UNL1        0.1796
     19 C         141.6823  140.5492  170.8772 C.1     1  UNL1        0.0912
     20 N         140.7554  141.1667  171.8820 N.1     1  UNL1       -0.1944
     21 S         140.8955  145.2421  159.0308 S.3     1  UNL1       -0.0777
     22 C         141.0627  144.7266  157.6322 C.3     1  UNL1        0.0461
     23 C         142.0186  145.8437  157.3347 C.3     1  UNL1        0.0113
     24 C         140.1068  143.6096  157.9296 C.3     1  UNL1        0.0113
     25 C         141.2299  144.2111  156.2335 C.3     1  UNL1        0.0113
@<TRIPOS>BOND
     1    12    11    1
     2    12    13    1
     3    13    14    1
     4    14    18    1
     5    18    19    1
     6    19    20    3
     7    14    15    1
     8    15    16    1
     9    16    17    1
    10    17     1    1
    11     1     2    2
    12     2     3    1
    13     3     4    2
    14     4     5    1
    15     5    21    1
    16    21    22    1
    17    22    23    1
    18    22    24    1
    19    22    25    1
    20     5     6    2
    21     6     7    1
    22     7     8    1
    23     8     9    2
    24     9    10    1
    25    17    12    1
    26     9     1    1
    27     7     3    1
@<TRIPOS>MOLECULE
*****
 25 27 0 0 0
SMALL
GASTEIGER

@<TRIPOS>ATOM
      1 C         139.5109  142.0911  164.0735 C.2     1  UNL1        0.0596
      2 C         140.0623  141.3846  162.8706 C.2     1  UNL1        0.0324
      3 C         139.5961  141.7669  161.4971 C.2     1  UNL1        0.0889
      4 N         139.9574  141.2525  160.1352 N.2     1  UNL1       -0.2236
      5 C         139.1630  142.0233  159.1229 C.2     1  UNL1        0.1859
      6 N         138.3108  143.0141  159.8591 N.2     1  UNL1       -0.2387
      7 C         138.5785  142.8556  161.3265 C.3     1  UNL1        0.1679
      8 C         138.0271  143.5621  162.5294 C.2     1  UNL1        0.0164
      9 C         138.4933  143.1798  163.9029 C.2     1  UNL1        0.0690
     10 CL        137.9419  143.8863  165.1057 Cl      1  UNL1       -0.0812
     11 C         138.2114  139.8043  165.5162 C.3     1  UNL1        0.0229
     12 C         139.3274  140.5654  166.1684 C.3     1  UNL1        0.0889
     13 C         139.7936  140.1831  167.5419 C.3     1  UNL1        0.0929
     14 N         140.9096  140.9443  168.1940 N.3     1  UNL1       -0.2568
     15 C         141.5594  142.0877  167.4726 C.3     1  UNL1        0.0946
     16 C         141.0931  142.4699  166.0991 C.3     1  UNL1        0.1081
     17 N         139.9772  141.7088  165.4470 N.pl3   1  UNL1       -0.3056
     18 C         141.3758  140.5619  169.5675 C.3     1  UNL1        0.1796
     19 C         140.9433  141.3665  170.7573 C.1     1  UNL1        0.0912
     20 N         140.5108  142.1711  171.9471 N.1     1  UNL1       -0.1944
     21 S         139.2121  141.8361  157.6354 S.3     1  UNL1       -0.0777
     22 C         138.0586  142.2794  156.7852 C.3     1  UNL1        0.0461
     23 C         137.2944  141.0510  157.1815 C.3     1  UNL1        0.0113
     24 C         138.8228  143.5078  156.3889 C.3     1  UNL1        0.0113
     25 C         136.9051  142.7227  155.9350 C.3     1  UNL1        0.0113
@<TRIPOS>BOND
     1    12    11    1
     2    12    13    1
     3    13    14    1
     4    14    18    1
     5    18    19    1
     6    19    20    3
     7    14    15    1
     8    15    16    1
     9    16    17    1
    10    17     1    1
    11     1     2    2
    12     2     3    1
    13     3     4    2
    14     4     5    1
    15     5    21    1
    16    21    22    1
    17    22    23    1
    18    22    24    1
    19    22    25    1
    20     5     6    2
    21     6     7    1
    22     7     8    1
    23     8     9    2
    24     9    10    1
    25    17    12    1
    26     9     1    1
    27     7     3    1
@<TRIPOS>MOLECULE
*****
 25 27 0 0 0
SMALL
GASTEIGER

@<TRIPOS>ATOM
      1 C         140.0807  139.6198  163.0959 C.2     1  UNL1        0.0596
      2 C         140.6306  140.8897  163.6748 C.2     1  UNL1        0.0324
      3 C         140.4599  141.1834  165.1358 C.2     1  UNL1        0.0889
      4 N         140.8908  142.3436  165.9833 N.2     1  UNL1       -0.2236
      5 C         140.4366  142.0845  167.3892 C.2     1  UNL1        0.1859
      6 N         139.7249  140.7642  167.4106 N.2     1  UNL1       -0.2387
      7 C         139.7393  140.2073  166.0179 C.3     1  UNL1        0.1679
      8 C         139.1895  138.9375  165.4389 C.2     1  UNL1        0.0164
      9 C         139.3601  138.6438  163.9779 C.2     1  UNL1        0.0690
     10 CL        138.8102  137.3739  163.3990 Cl      1  UNL1       -0.0812
     11 C         142.5227  138.1673  162.1332 C.3     1  UNL1        0.0229
     12 C         141.4724  138.5998  161.1534 C.3     1  UNL1        0.0889
     13 C         141.6430  138.3061  159.6924 C.3     1  UNL1        0.0929
     14 N         140.5927  138.7386  158.7127 N.3     1  UNL1       -0.2568
     15 C         139.3717  139.4648  159.1941 C.3     1  UNL1        0.0946
     16 C         139.2011  139.7586  160.6551 C.3     1  UNL1        0.1081
     17 N         140.2514  139.3260  161.6348 N.pl3   1  UNL1       -0.3056
     18 C         140.7635  138.4448  157.2518 C.3     1  UNL1        0.1796
     19 C         139.6863  137.7187  156.5018 C.1     1  UNL1        0.0912
     20 N         138.6091  136.9926  155.7519 N.1     1  UNL1       -0.1944
     21 S         140.6555  142.9872  168.5670 S.3     1  UNL1       -0.0777
     22 C         141.2052  142.4304  169.8468 C.3     1  UNL1        0.0461
     23 C         142.5531  142.2855  169.2047 C.3     1  UNL1        0.0113
     24 C         139.8573  142.5753  170.4888 C.3     1  UNL1        0.0113
     25 C         141.7549  141.8736  171.1265 C.3     1  UNL1        0.0113
@<TRIPOS>BOND
     1    12    11    1
     2    12    13    1
     3    13    14    1
     4    14    18    1
     5    18    19    1
     6    19    20    3
     7    14    15    1
     8    15    16    1
     9    16    17    1
    10    17     1    1
    11     1     2    2
    12     2     3    1
    13     3     4    2
    14     4     5    1
    15     5    21    1
    16    21    22    1
    17    22    23    1
    18    22    24    1
    19    22    25    1
    20     5     6    2
    21     6     7    1
    22     7     8    1
    23     8     9    2
    24     9    10    1
    25    17    12    1
    26     9     1    1
    27     7     3    1
@<TRIPOS>MOLECULE
*****
 25 27 0 0 0
SMALL
GASTEIGER

@<TRIPOS>ATOM
      1 C         140.0040  139.6838  163.3901 C.2     1  UNL1        0.0596
      2 C         140.4391  140.5697  164.5197 C.2     1  UNL1        0.0324
      3 C         139.9534  140.3012  165.9132 C.2     1  UNL1        0.0889
      4 N         140.2102  140.9969  167.2171 N.2     1  UNL1       -0.2236
      5 C         139.4480  140.2726  168.2869 C.2     1  UNL1        0.1859
      6 N         138.7203  139.1292  167.6442 N.2     1  UNL1       -0.2387
      7 C         139.0326  139.1469  166.1772 C.3     1  UNL1        0.1679
      8 C         138.5976  138.2610  165.0476 C.2     1  UNL1        0.0164
      9 C         139.0833  138.5296  163.6540 C.2     1  UNL1        0.0690
     10 CL        138.6482  137.6436  162.5244 Cl      1  UNL1       -0.0812
     11 C         138.3928  141.4193  161.5483 C.3     1  UNL1        0.0229
     12 C         139.6842  140.8201  161.0756 C.3     1  UNL1        0.0889
     13 C         140.1699  141.0886  159.6820 C.3     1  UNL1        0.0929
     14 N         141.4612  140.4893  159.2094 N.3     1  UNL1       -0.2568
     15 C         142.2668  139.6216  160.1303 C.3     1  UNL1        0.0946
     16 C         141.7811  139.3531  161.5238 C.3     1  UNL1        0.1081
     17 N         140.4898  139.9523  161.9965 N.pl3   1  UNL1       -0.3056
     18 C         141.9469  140.7578  157.8159 C.3     1  UNL1        0.1796
     19 C         143.3219  140.3223  157.4038 C.1     1  UNL1        0.0912
     20 N         144.6968  139.8867  156.9917 N.1     1  UNL1       -0.1944
     21 S         139.4188  140.6290  169.7436 S.3     1  UNL1       -0.0777
     22 C         140.6403  141.2001  170.4007 C.3     1  UNL1        0.0461
     23 C         139.9768  142.5437  170.4664 C.3     1  UNL1        0.0113
     24 C         141.3038  139.8564  170.3350 C.3     1  UNL1        0.0113
     25 C         141.8618  141.7711  171.0578 C.3     1  UNL1        0.0113
@<TRIPOS>BOND
     1    12    11    1
     2    12    13    1
     3    13    14    1
     4    14    18    1
     5    18    19    1
     6    19    20    3
     7    14    15    1
     8    15    16    1
     9    16    17    1
    10    17     1    1
    11     1     2    2
    12     2     3    1
    13     3     4    2
    14     4     5    1
    15     5    21    1
    16    21    22    1
    17    22    23    1
    18    22    24    1
    19    22    25    1
    20     5     6    2
    21     6     7    1
    22     7     8    1
    23     8     9    2
    24     9    10    1
    25    17    12    1
    26     9     1    1
    27     7     3    1
@<TRIPOS>MOLECULE
*****
 25 27 0 0 0
SMALL
GASTEIGER

@<TRIPOS>ATOM
      1 C         142.5494  139.9040  164.5503 C.2     1  UNL1        0.0596
      2 C         141.2296  139.9878  163.8423 C.2     1  UNL1        0.0324
      3 C         141.1119  139.5304  162.4186 C.2     1  UNL1        0.0889
      4 N         139.9512  139.4925  161.4693 N.2     1  UNL1       -0.2236
      5 C         140.4359  138.9278  160.1669 C.2     1  UNL1        0.1859
      6 N         141.8961  138.6167  160.3113 N.2     1  UNL1       -0.2387
      7 C         142.3140  138.9891  161.7030 C.3     1  UNL1        0.1679
      8 C         143.6337  138.9053  162.4110 C.2     1  UNL1        0.0164
      9 C         143.7513  139.3628  163.8347 C.2     1  UNL1        0.0690
     10 CL        145.0711  139.2789  164.5427 Cl      1  UNL1       -0.0812
     11 C         143.2488  142.7577  165.1559 C.3     1  UNL1        0.0229
     12 C         143.0168  141.7883  166.2769 C.3     1  UNL1        0.0889
     13 C         143.1345  142.2457  167.7006 C.3     1  UNL1        0.0929
     14 N         142.9024  141.2763  168.8214 N.3     1  UNL1       -0.2568
     15 C         142.5527  139.8494  168.5186 C.3     1  UNL1        0.0946
     16 C         142.4350  139.3920  167.0949 C.3     1  UNL1        0.1081
     17 N         142.6671  140.3615  165.9741 N.pl3   1  UNL1       -0.3056
     18 C         143.0201  141.7338  170.2451 C.3     1  UNL1        0.1796
     19 C         141.7883  141.8916  171.0864 C.1     1  UNL1        0.0912
     20 N         140.5566  142.0496  171.9278 N.1     1  UNL1       -0.1944
     21 S         139.6060  138.7121  158.9361 S.3     1  UNL1       -0.0777
     22 C         140.1208  139.1522  157.5978 C.3     1  UNL1        0.0461
     23 C         140.0027  140.5856  158.0237 C.3     1  UNL1        0.0113
     24 C         140.2389  137.7188  157.1718 C.3     1  UNL1        0.0113
     25 C         140.6357  139.5923  156.2594 C.3     1  UNL1        0.0113
@<TRIPOS>BOND
     1    12    11    1
     2    12    13    1
     3    13    14    1
     4    14    18    1
     5    18    19    1
     6    19    20    3
     7    14    15    1
     8    15    16    1
     9    16    17    1
    10    17     1    1
    11     1     2    2
    12     2     3    1
    13     3     4    2
    14     4     5    1
    15     5    21    1
    16    21    22    1
    17    22    23    1
    18    22    24    1
    19    22    25    1
    20     5     6    2
    21     6     7    1
    22     7     8    1
    23     8     9    2
    24     9    10    1
    25    17    12    1
    26     9     1    1
    27     7     3    1
@<TRIPOS>MOLECULE
*****
 25 27 0 0 0
SMALL
GASTEIGER

@<TRIPOS>ATOM
      1 C         141.6919  143.3447  162.8927 C.2     1  UNL1        0.0596
      2 C         140.6626  142.4764  163.5536 C.2     1  UNL1        0.0324
      3 C         140.8539  142.0359  164.9747 C.2     1  UNL1        0.0889
      4 N         140.0167  141.1851  165.8830 N.2     1  UNL1       -0.2236
      5 C         140.7197  141.0870  167.2044 C.2     1  UNL1        0.1859
      6 N         141.9913  141.8772  167.1128 N.2     1  UNL1       -0.2387
      7 C         142.0743  142.4637  165.7347 C.3     1  UNL1        0.1679
      8 C         143.1034  143.3320  165.0737 C.2     1  UNL1        0.0164
      9 C         142.9122  143.7725  163.6527 C.2     1  UNL1        0.0690
     10 CL        143.9414  144.6408  162.9917 Cl      1  UNL1       -0.0812
     11 C         140.1837  145.8682  162.2945 C.3     1  UNL1        0.0229
     12 C         140.7465  145.0470  161.1725 C.3     1  UNL1        0.0889
     13 C         140.5553  145.4875  159.7514 C.3     1  UNL1        0.0929
     14 N         141.1181  144.6662  158.6294 N.3     1  UNL1       -0.2568
     15 C         141.8722  143.4045  158.9285 C.3     1  UNL1        0.0946
     16 C         142.0634  142.9641  160.3495 C.3     1  UNL1        0.1081
     17 N         141.5006  143.7853  161.4715 N.pl3   1  UNL1       -0.3056
     18 C         140.9269  145.1068  157.2085 C.3     1  UNL1        0.1796
     19 C         140.0253  146.2645  156.8970 C.1     1  UNL1        0.0912
     20 N         139.1238  147.4222  156.5856 N.1     1  UNL1       -0.1944
     21 S         140.2359  140.3314  168.4065 S.3     1  UNL1       -0.0777
     22 C         140.7991  140.6389  169.7624 C.3     1  UNL1        0.0461
     23 C         141.8122  139.5463  169.5894 C.3     1  UNL1        0.0113
     24 C         139.7860  141.7315  169.9353 C.3     1  UNL1        0.0113
     25 C         141.3622  140.9464  171.1182 C.3     1  UNL1        0.0113
@<TRIPOS>BOND
     1    12    11    1
     2    12    13    1
     3    13    14    1
     4    14    18    1
     5    18    19    1
     6    19    20    3
     7    14    15    1
     8    15    16    1
     9    16    17    1
    10    17     1    1
    11     1     2    2
    12     2     3    1
    13     3     4    2
    14     4     5    1
    15     5    21    1
    16    21    22    1
    17    22    23    1
    18    22    24    1
    19    22    25    1
    20     5     6    2
    21     6     7    1
    22     7     8    1
    23     8     9    2
    24     9    10    1
    25    17    12    1
    26     9     1    1
    27     7     3    1
