@<TRIPOS>MOLECULE
*****
 24 25 0 0 0
SMALL
GASTEIGER

@<TRIPOS>ATOM
      1 C         137.6965  141.5176  162.7522 C.ar    1  UNL1        0.1327
      2 N         137.6089  141.4291  161.2574 N.ar    1  UNL1       -0.1993
      3 C         137.9191  140.1361  160.5631 C.ar    1  UNL1        0.2148
      4 N         137.8315  140.0477  159.0682 N.pl3   1  UNL1       -0.3274
      5 N         138.3170  138.9316  161.3636 N.ar    1  UNL1       -0.2139
      6 C         138.4046  139.0201  162.8585 C.ar    1  UNL1        0.0868
      7 C         138.8024  137.8156  163.6590 C.ar    1  UNL1        0.0190
      8 C         138.8900  137.9041  165.1538 C.ar    1  UNL1       -0.0027
      9 C         138.5798  139.1970  165.8481 C.ar    1  UNL1       -0.0217
     10 C         138.6674  139.2855  167.3430 C.3     1  UNL1        0.0310
     11 C         138.1819  140.4015  165.0476 C.ar    1  UNL1        0.0000
     12 C         138.0943  140.3130  163.5528 C.ar    1  UNL1        0.0489
     13 H         137.5704  140.8383  158.5428 H       1  UNL1        0.1452
     14 H         138.0351  139.1991  158.6125 H       1  UNL1        0.1452
     15 N         137.3863  142.8105  163.4464 N.pl3   1  UNL1       -0.3195
     16 H         136.4846  142.9714  163.8073 H       1  UNL1        0.1481
     17 C         138.4499  143.8583  163.5908 C.3     1  UNL1        0.0729
     18 C         138.8322  144.3562  164.9531 C.3     1  UNL1        0.0196
     19 C         140.9246  142.8358  165.1993 C.3     1  UNL1        0.0001
     20 C         139.7568  143.5482  165.8147 C.3     1  UNL1        0.0017
     21 C         139.1312  144.4082  162.3728 C.3     1  UNL1        0.0512
     22 C         140.3037  145.3317  162.5220 C.3     1  UNL1        0.1389
     23 O         140.1598  146.7867  162.1867 O.3     1  UNL1       -0.3819
     24 H         139.9960  146.8846  161.2356 H       1  UNL1        0.2104
@<TRIPOS>BOND
     1    19    20    1
     2    20    18    1
     3    17    18    1
     4    17    21    1
     5    21    22    1
     6    22    23    1
     7    17    15    1
     8    15     1    1
     9     1     2   ar
    10     2     3   ar
    11     3     4    1
    12     3     5   ar
    13     5     6   ar
    14     6     7   ar
    15     7     8   ar
    16     8     9   ar
    17     9    10    1
    18     9    11   ar
    19    11    12   ar
    20    12     1   ar
    21    12     6   ar
    22    23    24    1
    23    15    16    1
    24     4    13    1
    25     4    14    1
@<TRIPOS>MOLECULE
*****
 24 25 0 0 0
SMALL
GASTEIGER

@<TRIPOS>ATOM
      1 C         142.5622  141.6748  167.7234 C.ar    1  UNL1        0.1327
      2 N         143.3461  142.5317  168.6727 N.ar    1  UNL1       -0.1993
      3 C         142.8126  142.8105  170.0466 C.ar    1  UNL1        0.2148
      4 N         143.5965  143.6674  170.9959 N.pl3   1  UNL1       -0.3274
      5 N         141.4952  142.2324  170.4712 N.ar    1  UNL1       -0.2139
      6 C         140.7113  141.3754  169.5218 C.ar    1  UNL1        0.0868
      7 C         139.3939  140.7973  169.9464 C.ar    1  UNL1        0.0190
      8 C         138.6101  139.9404  168.9971 C.ar    1  UNL1       -0.0027
      9 C         139.1436  139.6616  167.6232 C.ar    1  UNL1       -0.0217
     10 C         138.3597  138.8046  166.6739 C.3     1  UNL1        0.0310
     11 C         140.4610  140.2397  167.1986 C.ar    1  UNL1        0.0000
     12 C         141.2448  141.0966  168.1479 C.ar    1  UNL1        0.0489
     13 H         144.4611  144.0469  170.7172 H       1  UNL1        0.1452
     14 H         143.2463  143.8504  171.8977 H       1  UNL1        0.1452
     15 N         143.0958  141.3959  166.3494 N.pl3   1  UNL1       -0.3195
     16 H         143.3592  140.4807  166.1000 H       1  UNL1        0.1481
     17 C         143.2280  142.5116  165.3556 C.3     1  UNL1        0.0729
     18 C         142.0372  143.3580  165.0153 C.3     1  UNL1        0.0196
     19 C         139.4531  143.1127  165.1260 C.3     1  UNL1        0.0001
     20 C         140.7717  142.7129  164.5332 C.3     1  UNL1        0.0017
     21 C         144.5510  142.7808  164.7018 C.3     1  UNL1        0.0512
     22 C         144.9609  141.9996  163.4888 C.3     1  UNL1        0.1389
     23 O         146.4148  141.8362  163.1580 O.3     1  UNL1       -0.3819
     24 H         146.7937  142.6997  162.9307 H       1  UNL1        0.2104
@<TRIPOS>BOND
     1    19    20    1
     2    20    18    1
     3    17    18    1
     4    17    21    1
     5    21    22    1
     6    22    23    1
     7    17    15    1
     8    15     1    1
     9     1     2   ar
    10     2     3   ar
    11     3     4    1
    12     3     5   ar
    13     5     6   ar
    14     6     7   ar
    15     7     8   ar
    16     8     9   ar
    17     9    10    1
    18     9    11   ar
    19    11    12   ar
    20    12     1   ar
    21    12     6   ar
    22    23    24    1
    23    15    16    1
    24     4    13    1
    25     4    14    1
@<TRIPOS>MOLECULE
*****
 24 25 0 0 0
SMALL
GASTEIGER

@<TRIPOS>ATOM
      1 C         139.7010  143.4065  164.7994 C.ar    1  UNL1        0.1327
      2 N         138.5573  143.0164  163.9107 N.ar    1  UNL1       -0.1993
      3 C         137.9256  141.6632  164.0517 C.ar    1  UNL1        0.2148
      4 N         136.7819  141.2732  163.1630 N.pl3   1  UNL1       -0.3274
      5 N         138.4376  140.7001  165.0814 N.ar    1  UNL1       -0.2139
      6 C         139.5813  141.0902  165.9702 C.ar    1  UNL1        0.0868
      7 C         140.0933  140.1271  166.9999 C.ar    1  UNL1        0.0190
      8 C         141.2370  140.5172  167.8885 C.ar    1  UNL1       -0.0027
      9 C         141.8686  141.8704  167.7475 C.ar    1  UNL1       -0.0217
     10 C         143.0124  142.2605  168.6363 C.3     1  UNL1        0.0310
     11 C         141.3567  142.8335  166.7179 C.ar    1  UNL1        0.0000
     12 C         140.2130  142.4434  165.8292 C.ar    1  UNL1        0.0489
     13 H         136.4458  141.9053  162.4872 H       1  UNL1        0.1452
     14 H         136.3673  140.3850  163.2555 H       1  UNL1        0.1452
     15 N         140.3326  144.7597  164.6584 N.pl3   1  UNL1       -0.3195
     16 H         140.0536  145.4970  165.2481 H       1  UNL1        0.1481
     17 C         141.3894  144.9894  163.6190 C.3     1  UNL1        0.0729
     18 C         142.8310  145.0825  164.0229 C.3     1  UNL1        0.0196
     19 C         144.5634  143.6019  165.2705 C.3     1  UNL1        0.0001
     20 C         143.6733  143.8430  164.0875 C.3     1  UNL1        0.0017
     21 C         141.0046  145.1261  162.1756 C.3     1  UNL1        0.0512
     22 C         139.7897  145.9194  161.7952 C.3     1  UNL1        0.1389
     23 O         138.4229  145.4162  162.1536 O.3     1  UNL1       -0.3819
     24 H         138.2416  144.5976  161.6658 H       1  UNL1        0.2104
@<TRIPOS>BOND
     1    19    20    1
     2    20    18    1
     3    17    18    1
     4    17    21    1
     5    21    22    1
     6    22    23    1
     7    17    15    1
     8    15     1    1
     9     1     2   ar
    10     2     3   ar
    11     3     4    1
    12     3     5   ar
    13     5     6   ar
    14     6     7   ar
    15     7     8   ar
    16     8     9   ar
    17     9    10    1
    18     9    11   ar
    19    11    12   ar
    20    12     1   ar
    21    12     6   ar
    22    23    24    1
    23    15    16    1
    24     4    13    1
    25     4    14    1
@<TRIPOS>MOLECULE
*****
 24 25 0 0 0
SMALL
GASTEIGER

@<TRIPOS>ATOM
      1 C         140.4274  141.2899  165.0644 C.ar    1  UNL1        0.1327
      2 N         140.0325  140.1088  164.2284 N.ar    1  UNL1       -0.1993
      3 C         139.3897  138.9159  164.8716 C.ar    1  UNL1        0.2148
      4 N         138.9948  137.7348  164.0355 N.pl3   1  UNL1       -0.3274
      5 N         139.1417  138.9041  166.3509 N.ar    1  UNL1       -0.2139
      6 C         139.5366  140.0852  167.1870 C.ar    1  UNL1        0.0868
      7 C         139.2886  140.0734  168.6663 C.ar    1  UNL1        0.0190
      8 C         139.6835  141.2545  169.5024 C.ar    1  UNL1       -0.0027
      9 C         140.3263  142.4474  168.8592 C.ar    1  UNL1       -0.0217
     10 C         140.7212  143.6286  169.6953 C.3     1  UNL1        0.0310
     11 C         140.5743  142.4592  167.3799 C.ar    1  UNL1        0.0000
     12 C         140.1794  141.2781  166.5438 C.ar    1  UNL1        0.0489
     13 H         139.1576  137.7425  163.0645 H       1  UNL1        0.1452
     14 H         138.5729  136.9518  164.4576 H       1  UNL1        0.1452
     15 N         141.0702  142.4828  164.4212 N.pl3   1  UNL1       -0.3195
     16 H         142.0317  142.6521  164.5482 H       1  UNL1        0.1481
     17 C         140.2481  143.4178  163.5846 C.3     1  UNL1        0.0729
     18 C         138.7522  143.3082  163.5874 C.3     1  UNL1        0.0196
     19 C         138.6181  144.9777  165.5736 C.3     1  UNL1        0.0001
     20 C         137.9512  144.0040  164.6478 C.3     1  UNL1        0.0017
     21 C         140.9221  144.4624  162.7450 C.3     1  UNL1        0.0512
     22 C         140.0990  145.4148  161.9294 C.3     1  UNL1        0.1389
     23 O         140.1256  146.8826  162.2374 O.3     1  UNL1       -0.3819
     24 H         139.7338  147.0367  163.1113 H       1  UNL1        0.2104
@<TRIPOS>BOND
     1    19    20    1
     2    20    18    1
     3    17    18    1
     4    17    21    1
     5    21    22    1
     6    22    23    1
     7    17    15    1
     8    15     1    1
     9     1     2   ar
    10     2     3   ar
    11     3     4    1
    12     3     5   ar
    13     5     6   ar
    14     6     7   ar
    15     7     8   ar
    16     8     9   ar
    17     9    10    1
    18     9    11   ar
    19    11    12   ar
    20    12     1   ar
    21    12     6   ar
    22    23    24    1
    23    15    16    1
    24     4    13    1
    25     4    14    1
@<TRIPOS>MOLECULE
*****
 24 25 0 0 0
SMALL
GASTEIGER

@<TRIPOS>ATOM
      1 C         142.7849  141.6715  165.4180 C.ar    1  UNL1        0.1327
      2 N         144.1730  141.3328  164.9618 N.ar    1  UNL1       -0.1993
      3 C         144.8578  142.1925  163.9410 C.ar    1  UNL1        0.2148
      4 N         146.2460  141.8538  163.4848 N.pl3   1  UNL1       -0.3274
      5 N         144.1543  143.3910  163.3765 N.ar    1  UNL1       -0.2139
      6 C         142.7660  143.7297  163.8326 C.ar    1  UNL1        0.0868
      7 C         142.0625  144.9282  163.2681 C.ar    1  UNL1        0.0190
      8 C         140.6743  145.2669  163.7243 C.ar    1  UNL1       -0.0027
      9 C         139.9896  144.4071  164.7450 C.ar    1  UNL1       -0.0217
     10 C         138.6014  144.7459  165.2012 C.3     1  UNL1        0.0310
     11 C         140.6931  143.2087  165.3096 C.ar    1  UNL1        0.0000
     12 C         142.0813  142.8700  164.8534 C.ar    1  UNL1        0.0489
     13 H         146.7077  141.0672  163.8554 H       1  UNL1        0.1452
     14 H         146.6954  142.4181  162.8149 H       1  UNL1        0.1452
     15 N         142.1001  140.8117  166.4388 N.pl3   1  UNL1       -0.3195
     16 H         141.5364  140.0583  166.1494 H       1  UNL1        0.1481
     17 C         142.2744  141.0999  167.9005 C.3     1  UNL1        0.0729
     18 C         141.5624  140.2614  168.9203 C.3     1  UNL1        0.0196
     19 C         139.1775  140.6196  169.8870 C.3     1  UNL1        0.0001
     20 C         140.0785  140.0633  168.8245 C.3     1  UNL1        0.0017
     21 C         143.1607  142.2265  168.3424 C.3     1  UNL1        0.0512
     22 C         143.5300  142.3670  169.7894 C.3     1  UNL1        0.1389
     23 O         144.8975  142.8510  170.1708 O.3     1  UNL1       -0.3819
     24 H         145.5598  142.1974  169.8970 H       1  UNL1        0.2104
@<TRIPOS>BOND
     1    19    20    1
     2    20    18    1
     3    17    18    1
     4    17    21    1
     5    21    22    1
     6    22    23    1
     7    17    15    1
     8    15     1    1
     9     1     2   ar
    10     2     3   ar
    11     3     4    1
    12     3     5   ar
    13     5     6   ar
    14     6     7   ar
    15     7     8   ar
    16     8     9   ar
    17     9    10    1
    18     9    11   ar
    19    11    12   ar
    20    12     1   ar
    21    12     6   ar
    22    23    24    1
    23    15    16    1
    24     4    13    1
    25     4    14    1
@<TRIPOS>MOLECULE
*****
 24 25 0 0 0
SMALL
GASTEIGER

@<TRIPOS>ATOM
      1 C         139.6438  140.5066  167.6154 C.ar    1  UNL1        0.1327
      2 N         138.8683  139.2731  167.9715 N.ar    1  UNL1       -0.1993
      3 C         137.9153  138.6740  166.9800 C.ar    1  UNL1        0.2148
      4 N         137.1398  137.4403  167.3362 N.pl3   1  UNL1       -0.3274
      5 N         137.7380  139.3084  165.6325 N.ar    1  UNL1       -0.2139
      6 C         138.5135  140.5420  165.2763 C.ar    1  UNL1        0.0868
      7 C         138.3361  141.1764  163.9287 C.ar    1  UNL1        0.0190
      8 C         139.1116  142.4100  163.5726 C.ar    1  UNL1       -0.0027
      9 C         140.0646  143.0091  164.5641 C.ar    1  UNL1       -0.0217
     10 C         140.8401  144.2427  164.2079 C.3     1  UNL1        0.0310
     11 C         140.2419  142.3747  165.9116 C.ar    1  UNL1        0.0000
     12 C         139.4664  141.1411  166.2678 C.ar    1  UNL1        0.0489
     13 H         137.2562  137.0239  168.2207 H       1  UNL1        0.1452
     14 H         136.5144  137.0471  166.6855 H       1  UNL1        0.1452
     15 N         140.5967  141.1058  168.6069 N.pl3   1  UNL1       -0.3195
     16 H         140.3143  141.8678  169.1625 H       1  UNL1        0.1481
     17 C         141.9799  140.5439  168.7517 C.3     1  UNL1        0.0729
     18 C         142.8323  140.3270  167.5367 C.3     1  UNL1        0.0196
     19 C         142.2084  138.6205  165.6796 C.3     1  UNL1        0.0001
     20 C         142.9512  138.9564  166.9388 C.3     1  UNL1        0.0017
     21 C         142.5107  140.1988  170.1116 C.3     1  UNL1        0.0512
     22 C         142.0003  140.9231  171.3219 C.3     1  UNL1        0.1389
     23 O         140.6473  140.5924  171.8786 O.3     1  UNL1       -0.3819
     24 H         139.9637  140.8446  171.2383 H       1  UNL1        0.2104
@<TRIPOS>BOND
     1    19    20    1
     2    20    18    1
     3    17    18    1
     4    17    21    1
     5    21    22    1
     6    22    23    1
     7    17    15    1
     8    15     1    1
     9     1     2   ar
    10     2     3   ar
    11     3     4    1
    12     3     5   ar
    13     5     6   ar
    14     6     7   ar
    15     7     8   ar
    16     8     9   ar
    17     9    10    1
    18     9    11   ar
    19    11    12   ar
    20    12     1   ar
    21    12     6   ar
    22    23    24    1
    23    15    16    1
    24     4    13    1
    25     4    14    1
@<TRIPOS>MOLECULE
*****
 24 25 0 0 0
SMALL
GASTEIGER

@<TRIPOS>ATOM
      1 C         140.6722  145.1121  162.2328 C.ar    1  UNL1        0.1327
      2 N         140.2021  145.3480  160.8280 N.ar    1  UNL1       -0.1993
      3 C         141.0397  144.8918  159.6703 C.ar    1  UNL1        0.2148
      4 N         140.5696  145.1277  158.2655 N.pl3   1  UNL1       -0.3274
      5 N         142.3474  144.1998  159.9173 N.ar    1  UNL1       -0.2139
      6 C         142.8176  143.9640  161.3221 C.ar    1  UNL1        0.0868
      7 C         144.1252  143.2720  161.5692 C.ar    1  UNL1        0.0190
      8 C         144.5953  143.0361  162.9739 C.ar    1  UNL1       -0.0027
      9 C         143.7577  143.4923  164.1316 C.ar    1  UNL1       -0.0217
     10 C         144.2278  143.2564  165.5365 C.3     1  UNL1        0.0310
     11 C         142.4500  144.1843  163.8846 C.ar    1  UNL1        0.0000
     12 C         141.9799  144.4201  162.4799 C.ar    1  UNL1        0.0489
     13 H         139.7113  145.5819  158.1034 H       1  UNL1        0.1452
     14 H         141.1194  144.8283  157.5056 H       1  UNL1        0.1452
     15 N         139.8346  145.5683  163.3905 N.pl3   1  UNL1       -0.3195
     16 H         139.9649  146.4681  163.7680 H       1  UNL1        0.1481
     17 C         138.7984  144.6534  163.9731 C.3     1  UNL1        0.0729
     18 C         138.8189  144.3336  165.4384 C.3     1  UNL1        0.0196
     19 C         139.7848  141.9436  165.7624 C.3     1  UNL1        0.0001
     20 C         139.8743  143.4231  165.9927 C.3     1  UNL1        0.0017
     21 C         137.7418  144.0583  163.0902 C.3     1  UNL1        0.0512
     22 C         137.8223  142.6141  162.6930 C.3     1  UNL1        0.1389
     23 O         136.7598  141.6535  163.1382 O.3     1  UNL1       -0.3819
     24 H         136.7933  141.5587  164.1030 H       1  UNL1        0.2104
@<TRIPOS>BOND
     1    19    20    1
     2    20    18    1
     3    17    18    1
     4    17    21    1
     5    21    22    1
     6    22    23    1
     7    17    15    1
     8    15     1    1
     9     1     2   ar
    10     2     3   ar
    11     3     4    1
    12     3     5   ar
    13     5     6   ar
    14     6     7   ar
    15     7     8   ar
    16     8     9   ar
    17     9    10    1
    18     9    11   ar
    19    11    12   ar
    20    12     1   ar
    21    12     6   ar
    22    23    24    1
    23    15    16    1
    24     4    13    1
    25     4    14    1
@<TRIPOS>MOLECULE
*****
 24 25 0 0 0
SMALL
GASTEIGER

@<TRIPOS>ATOM
      1 C         141.6669  142.4841  164.9197 C.ar    1  UNL1        0.1327
      2 N         141.7403  143.7341  164.0938 N.ar    1  UNL1       -0.1993
      3 C         142.9149  143.9684  163.1907 C.ar    1  UNL1        0.2148
      4 N         142.9882  145.2184  162.3647 N.pl3   1  UNL1       -0.3274
      5 N         144.0160  142.9528  163.1136 N.ar    1  UNL1       -0.2139
      6 C         143.9427  141.7028  163.9396 C.ar    1  UNL1        0.0868
      7 C         145.0438  140.6872  163.8626 C.ar    1  UNL1        0.0190
      8 C         144.9704  139.4373  164.6885 C.ar    1  UNL1       -0.0027
      9 C         143.7959  139.2030  165.5916 C.ar    1  UNL1       -0.0217
     10 C         143.7225  137.9530  166.4176 C.3     1  UNL1        0.0310
     11 C         142.6947  140.2185  165.6687 C.ar    1  UNL1        0.0000
     12 C         142.7681  141.4685  164.8427 C.ar    1  UNL1        0.0489
     13 H         142.2655  145.8850  162.4153 H       1  UNL1        0.1452
     14 H         143.7591  145.3722  161.7720 H       1  UNL1        0.1452
     15 N         140.4924  142.2498  165.8228 N.pl3   1  UNL1       -0.3195
     16 H         140.5520  142.4810  166.7779 H       1  UNL1        0.1481
     17 C         139.2270  141.6633  165.2706 C.3     1  UNL1        0.0729
     18 C         139.0241  140.1771  165.2768 C.3     1  UNL1        0.0196
     19 C         137.7764  138.6083  166.9298 C.3     1  UNL1        0.0001
     20 C         138.9798  139.4316  166.5778 C.3     1  UNL1        0.0017
     21 C         138.1646  142.5630  164.7122 C.3     1  UNL1        0.0512
     22 C         137.6447  142.3376  163.3234 C.3     1  UNL1        0.1389
     23 O         136.5552  141.3347  163.0841 O.3     1  UNL1       -0.3819
     24 H         136.8866  140.4444  163.2799 H       1  UNL1        0.2104
@<TRIPOS>BOND
     1    19    20    1
     2    20    18    1
     3    17    18    1
     4    17    21    1
     5    21    22    1
     6    22    23    1
     7    17    15    1
     8    15     1    1
     9     1     2   ar
    10     2     3   ar
    11     3     4    1
    12     3     5   ar
    13     5     6   ar
    14     6     7   ar
    15     7     8   ar
    16     8     9   ar
    17     9    10    1
    18     9    11   ar
    19    11    12   ar
    20    12     1   ar
    21    12     6   ar
    22    23    24    1
    23    15    16    1
    24     4    13    1
    25     4    14    1
@<TRIPOS>MOLECULE
*****
 24 25 0 0 0
SMALL
GASTEIGER

@<TRIPOS>ATOM
      1 C         142.3962  141.3217  165.2234 C.ar    1  UNL1        0.1327
      2 N         143.8265  140.9972  164.9089 N.ar    1  UNL1       -0.1993
      3 C         144.6746  141.9873  164.1671 C.ar    1  UNL1        0.2148
      4 N         146.1050  141.6628  163.8527 N.pl3   1  UNL1       -0.3274
      5 N         144.0924  143.3020  163.7396 N.ar    1  UNL1       -0.2139
      6 C         142.6620  143.6265  164.0540 C.ar    1  UNL1        0.0868
      7 C         142.0798  144.9411  163.6266 C.ar    1  UNL1        0.0190
      8 C         140.6495  145.2656  163.9410 C.ar    1  UNL1       -0.0027
      9 C         139.8014  144.2755  164.6829 C.ar    1  UNL1       -0.0217
     10 C         138.3711  144.6000  164.9973 C.3     1  UNL1        0.0310
     11 C         140.3836  142.9608  165.1103 C.ar    1  UNL1        0.0000
     12 C         141.8139  142.6364  164.7959 C.ar    1  UNL1        0.0489
     13 H         146.4871  140.8000  164.1332 H       1  UNL1        0.1452
     14 H         146.6616  142.3127  163.3657 H       1  UNL1        0.1452
     15 N         141.5481  140.3315  165.9652 N.pl3   1  UNL1       -0.3195
     16 H         141.4517  140.4007  166.9426 H       1  UNL1        0.1481
     17 C         140.8470  139.2360  165.2181 C.3     1  UNL1        0.0729
     18 C         139.4438  139.4406  164.7292 C.3     1  UNL1        0.0196
     19 C         137.9607  138.6691  166.7181 C.3     1  UNL1        0.0001
     20 C         138.3404  139.7116  165.7086 C.3     1  UNL1        0.0017
     21 C         141.5492  137.9359  164.9598 C.3     1  UNL1        0.0512
     22 C         140.9620  136.9442  163.9998 C.3     1  UNL1        0.1389
     23 O         141.4329  136.9090  162.5761 O.3     1  UNL1       -0.3819
     24 H         141.1812  137.7337  162.1318 H       1  UNL1        0.2104
@<TRIPOS>BOND
     1    19    20    1
     2    20    18    1
     3    17    18    1
     4    17    21    1
     5    21    22    1
     6    22    23    1
     7    17    15    1
     8    15     1    1
     9     1     2   ar
    10     2     3   ar
    11     3     4    1
    12     3     5   ar
    13     5     6   ar
    14     6     7   ar
    15     7     8   ar
    16     8     9   ar
    17     9    10    1
    18     9    11   ar
    19    11    12   ar
    20    12     1   ar
    21    12     6   ar
    22    23    24    1
    23    15    16    1
    24     4    13    1
    25     4    14    1
