@<TRIPOS>MOLECULE
*****
 49 54 0 0 0
SMALL
GASTEIGER

@<TRIPOS>ATOM
      1 N         142.2494  142.3788  156.4901 N.3     1  UNL1       -0.2726
      2 C         141.0864  143.3247  156.4412 C.3     1  UNL1        0.0738
      3 C         140.9067  144.3490  157.5223 C.3     1  UNL1        0.0369
      4 C         141.8901  144.4272  158.6522 C.3     1  UNL1        0.0745
      5 C         143.0532  143.4812  158.7011 C.3     1  UNL1        0.0369
      6 C         143.2329  142.4570  157.6201 C.3     1  UNL1        0.0738
      7 N         141.7105  145.4514  159.7333 N.pl3   1  UNL1       -0.3058
      8 H         142.1145  146.3441  159.6377 H       1  UNL1        0.1495
      9 C         140.9153  145.1156  160.9600 C.ar    1  UNL1        0.1981
     10 N         139.4393  144.8529  161.0093 N.ar    1  UNL1       -0.2138
     11 C         139.0682  144.5585  162.4325 C.ar    1  UNL1        0.0999
     12 C         137.7562  144.2273  163.0798 C.ar    1  UNL1        0.0207
     13 C         137.6909  143.9767  164.5573 C.ar    1  UNL1        0.0016
     14 C         138.9375  144.0574  165.3875 C.ar    1  UNL1        0.0016
     15 C         140.2495  144.3886  164.7403 C.ar    1  UNL1        0.0188
     16 C         140.3149  144.6391  163.2628 C.ar    1  UNL1        0.0801
     17 N         141.4564  144.9835  162.3527 N.ar    1  UNL1       -0.2956
     18 C         142.8878  145.1640  162.7633 C.3     1  UNL1        0.1354
     19 C         143.7087  143.9745  163.1648 C.ar    1  UNL1        0.0006
     20 C         143.8629  143.6249  164.6153 C.ar    1  UNL1       -0.0001
     21 C         144.6838  142.4354  165.0168 C.ar    1  UNL1        0.0294
     22 C         145.3504  141.5955  163.9679 C.ar    1  UNL1        0.1401
     23 F         146.1713  140.4060  164.3694 F       1  UNL1       -0.2042
     24 C         145.1961  141.9452  162.5174 C.ar    1  UNL1        0.0294
     25 C         144.3752  143.1346  162.1158 C.ar    1  UNL1       -0.0001
     26 C         142.4290  141.3545  155.4090 C.3     1  UNL1        0.0722
     27 C         141.6425  140.0778  155.4473 C.3     1  UNL1        0.0191
     28 C         141.0049  139.6279  156.7283 C.3     1  UNL1        0.0227
     29 C         141.8525  139.0675  157.8317 C.3     1  UNL1        0.0897
     30 C         142.6483  139.4573  160.2740 C.2     1  UNL1        0.2522
     31 O         144.0611  139.1708  159.8594 O.2     1  UNL1       -0.2699
     32 N         141.5440  139.4056  159.2601 N.am    1  UNL1       -0.3007
     33 H         140.6167  139.5936  159.5322 H       1  UNL1        0.1497
     34 C         142.0463  140.0239  167.0979 C.ar    1  UNL1        0.0509
     35 C         142.9870  138.8998  166.7797 C.ar    1  UNL1        0.0147
     36 C         143.2955  138.5616  165.3512 C.ar    1  UNL1        0.0043
     37 C         142.6634  139.3476  164.2411 C.ar    1  UNL1        0.0351
     38 C         142.9719  139.0095  162.8126 C.ar    1  UNL1        0.0141
     39 C         142.3398  139.7955  161.7024 C.ar    1  UNL1        0.1293
     40 C         141.3990  140.9197  162.0207 C.ar    1  UNL1        0.3502
     41 O         140.7669  141.7057  160.9105 O.2     1  UNL1       -0.2443
     42 O         141.0905  141.2578  163.4491 O.2     1  UNL1       -0.4209
     43 C         141.7227  140.4717  164.5593 C.ar    1  UNL1        0.1499
     44 C         141.4141  140.8099  165.9878 C.ar    1  UNL1        0.0521
     45 N         141.7377  140.3621  168.5264 N.pl3   1  UNL1       -0.3074
     46 C         143.3677  142.3152  169.0541 C.3     1  UNL1        0.0232
     47 C         142.7952  140.9721  169.3980 C.3     1  UNL1        0.0908
     48 C         140.3718  140.0902  169.0833 C.3     1  UNL1        0.0908
     49 C         139.6711  141.1381  169.8962 C.3     1  UNL1        0.0232
@<TRIPOS>BOND
     1    46    47    1
     2    47    45    1
     3    45    48    1
     4    48    49    1
     5    45    34    1
     6    34    35   ar
     7    35    36   ar
     8    36    37   ar
     9    37    38   ar
    10    38    39   ar
    11    39    30    1
    12    30    31    2
    13    30    32   am
    14    32    29    1
    15    29    28    1
    16    28    27    1
    17    27    26    1
    18    26     1    1
    19     1     2    1
    20     2     3    1
    21     3     4    1
    22     4     7    1
    23     7     9    1
    24     9    10   ar
    25    10    11   ar
    26    11    12   ar
    27    12    13   ar
    28    13    14   ar
    29    14    15   ar
    30    15    16   ar
    31    16    17   ar
    32    17    18    1
    33    18    19    1
    34    19    20   ar
    35    20    21   ar
    36    21    22   ar
    37    22    23    1
    38    22    24   ar
    39    24    25   ar
    40     4     5    1
    41     5     6    1
    42    39    40   ar
    43    40    41    2
    44    40    42   ar
    45    42    43   ar
    46    43    44   ar
    47    44    34   ar
    48    43    37   ar
    49     6     1    1
    50    17     9   ar
    51    25    19   ar
    52    16    11   ar
    53    32    33    1
    54     7     8    1
@<TRIPOS>MOLECULE
*****
 49 54 0 0 0
SMALL
GASTEIGER

@<TRIPOS>ATOM
      1 N         142.9390  141.1932  157.0914 N.3     1  UNL1       -0.2726
      2 C         143.9763  141.9928  157.8224 C.3     1  UNL1        0.0738
      3 C         143.5746  143.2135  158.5961 C.3     1  UNL1        0.0369
      4 C         142.1355  143.6345  158.6387 C.3     1  UNL1        0.0745
      5 C         141.0981  142.8349  157.9076 C.3     1  UNL1        0.0369
      6 C         141.4998  141.6142  157.1340 C.3     1  UNL1        0.0738
      7 N         141.7338  144.8552  159.4124 N.pl3   1  UNL1       -0.3058
      8 H         141.9608  145.7506  159.0718 H       1  UNL1        0.1495
      9 C         140.9862  144.7117  160.7048 C.ar    1  UNL1        0.1981
     10 N         139.4949  144.7097  160.8651 N.ar    1  UNL1       -0.2138
     11 C         139.1856  144.5417  162.3233 C.ar    1  UNL1        0.0999
     12 C         137.8880  144.4683  163.0722 C.ar    1  UNL1        0.0207
     13 C         137.8908  144.2931  164.5619 C.ar    1  UNL1        0.0016
     14 C         139.1911  144.1912  165.3027 C.ar    1  UNL1        0.0016
     15 C         140.4887  144.2647  164.5539 C.ar    1  UNL1        0.0188
     16 C         140.4860  144.4399  163.0642 C.ar    1  UNL1        0.0801
     17 N         141.5988  144.5449  162.0639 N.ar    1  UNL1       -0.2956
     18 C         143.0665  144.4924  162.3691 C.3     1  UNL1        0.1354
     19 C         143.6926  143.2074  162.8235 C.ar    1  UNL1        0.0006
     20 C         144.2103  143.0801  164.2256 C.ar    1  UNL1       -0.0001
     21 C         144.8365  141.7951  164.6801 C.ar    1  UNL1        0.0294
     22 C         144.9448  140.6373  163.7326 C.ar    1  UNL1        0.1401
     23 F         145.5710  139.3522  164.1870 F       1  UNL1       -0.2042
     24 C         144.4271  140.7646  162.3305 C.ar    1  UNL1        0.0294
     25 C         143.8010  142.0496  161.8760 C.ar    1  UNL1       -0.0001
     26 C         143.3407  139.9725  156.3177 C.3     1  UNL1        0.0722
     27 C         142.8245  138.6238  156.7236 C.3     1  UNL1        0.0191
     28 C         142.7677  138.2480  158.1747 C.3     1  UNL1        0.0227
     29 C         141.4952  138.4308  158.9474 C.3     1  UNL1        0.0897
     30 C         140.3858  138.8117  161.2657 C.2     1  UNL1        0.2522
     31 O         139.2027  137.9974  160.8334 O.2     1  UNL1       -0.2699
     32 N         141.5321  139.0284  160.3227 N.am    1  UNL1       -0.3007
     33 H         142.3087  139.5629  160.6065 H       1  UNL1        0.1497
     34 C         141.5996  140.7871  167.7368 C.ar    1  UNL1        0.0509
     35 C         142.6289  139.7740  167.3314 C.ar    1  UNL1        0.0147
     36 C         142.5919  139.1763  165.9561 C.ar    1  UNL1        0.0043
     37 C         141.5258  139.5917  164.9862 C.ar    1  UNL1        0.0351
     38 C         141.4889  138.9940  163.6109 C.ar    1  UNL1        0.0141
     39 C         140.4227  139.4094  162.6410 C.ar    1  UNL1        0.1293
     40 C         139.3934  140.4225  163.0463 C.ar    1  UNL1        0.3502
     41 O         138.3273  140.8379  162.0764 O.2     1  UNL1       -0.2443
     42 O         139.4304  141.0202  164.4216 O.2     1  UNL1       -0.4209
     43 C         140.4966  140.6048  165.3916 C.ar    1  UNL1        0.1499
     44 C         140.5335  141.2025  166.7668 C.ar    1  UNL1        0.0521
     45 N         141.6366  141.3848  169.1120 N.pl3   1  UNL1       -0.3074
     46 C         140.4043  143.6388  169.5000 C.3     1  UNL1        0.0232
     47 C         140.4526  142.1454  169.6313 C.3     1  UNL1        0.0908
     48 C         142.8575  141.2218  169.9681 C.3     1  UNL1        0.0908
     49 C         143.9470  142.2518  169.9244 C.3     1  UNL1        0.0232
@<TRIPOS>BOND
     1    46    47    1
     2    47    45    1
     3    45    48    1
     4    48    49    1
     5    45    34    1
     6    34    35   ar
     7    35    36   ar
     8    36    37   ar
     9    37    38   ar
    10    38    39   ar
    11    39    30    1
    12    30    31    2
    13    30    32   am
    14    32    29    1
    15    29    28    1
    16    28    27    1
    17    27    26    1
    18    26     1    1
    19     1     2    1
    20     2     3    1
    21     3     4    1
    22     4     7    1
    23     7     9    1
    24     9    10   ar
    25    10    11   ar
    26    11    12   ar
    27    12    13   ar
    28    13    14   ar
    29    14    15   ar
    30    15    16   ar
    31    16    17   ar
    32    17    18    1
    33    18    19    1
    34    19    20   ar
    35    20    21   ar
    36    21    22   ar
    37    22    23    1
    38    22    24   ar
    39    24    25   ar
    40     4     5    1
    41     5     6    1
    42    39    40   ar
    43    40    41    2
    44    40    42   ar
    45    42    43   ar
    46    43    44   ar
    47    44    34   ar
    48    43    37   ar
    49     6     1    1
    50    17     9   ar
    51    25    19   ar
    52    16    11   ar
    53    32    33    1
    54     7     8    1
@<TRIPOS>MOLECULE
*****
 49 54 0 0 0
SMALL
GASTEIGER

@<TRIPOS>ATOM
      1 N         140.6541  140.1154  157.1454 N.3     1  UNL1       -0.2726
      2 C         141.0272  139.1718  158.2501 C.3     1  UNL1        0.0738
      3 C         142.2562  139.4270  159.0714 C.3     1  UNL1        0.0369
      4 C         143.1120  140.6258  158.7881 C.3     1  UNL1        0.0745
      5 C         142.7389  141.5695  157.6834 C.3     1  UNL1        0.0369
      6 C         141.5100  141.3143  156.8621 C.3     1  UNL1        0.0738
      7 N         144.3410  140.8810  159.6094 N.pl3   1  UNL1       -0.3058
      8 H         145.2036  140.4914  159.3387 H       1  UNL1        0.1495
      9 C         144.2556  141.7298  160.8432 C.ar    1  UNL1        0.1981
     10 N         144.0012  143.2076  160.8808 N.ar    1  UNL1       -0.2138
     11 C         143.9980  143.6410  162.3168 C.ar    1  UNL1        0.0999
     12 C         143.7978  144.9811  162.9603 C.ar    1  UNL1        0.0207
     13 C         143.8501  145.1112  164.4538 C.ar    1  UNL1        0.0016
     14 C         144.1025  143.9013  165.3037 C.ar    1  UNL1        0.0016
     15 C         144.3027  142.5612  164.6601 C.ar    1  UNL1        0.0188
     16 C         144.2504  142.4311  163.1667 C.ar    1  UNL1        0.0801
     17 N         144.4096  141.2499  162.2560 N.ar    1  UNL1       -0.2956
     18 C         144.6760  139.8369  162.6830 C.3     1  UNL1        0.1354
     19 C         143.5759  139.0160  163.2877 C.ar    1  UNL1        0.0006
     20 C         143.4728  138.8817  164.7781 C.ar    1  UNL1       -0.0001
     21 C         142.3726  138.0608  165.3829 C.ar    1  UNL1        0.0294
     22 C         141.3756  137.3742  164.4972 C.ar    1  UNL1        0.1401
     23 F         140.2753  136.5532  165.1019 F       1  UNL1       -0.2042
     24 C         141.4786  137.5085  163.0068 C.ar    1  UNL1        0.0294
     25 C         142.5788  138.3294  162.4021 C.ar    1  UNL1       -0.0001
     26 C         139.4252  139.8603  156.3241 C.3     1  UNL1        0.0722
     27 C         138.1705  140.6383  156.5900 C.3     1  UNL1        0.0191
     28 C         137.9447  141.2600  157.9363 C.3     1  UNL1        0.0227
     29 C         137.7631  140.3888  159.1438 C.3     1  UNL1        0.0897
     30 C         138.6012  139.7799  161.5264 C.2     1  UNL1        0.2522
     31 O         138.2823  138.3368  161.2697 O.2     1  UNL1       -0.2699
     32 N         138.3415  140.8059  160.4634 N.am    1  UNL1       -0.3007
     33 H         138.5508  141.7531  160.6318 H       1  UNL1        0.1497
     34 C         140.3593  140.8849  168.0791 C.ar    1  UNL1        0.0509
     35 C         139.2251  139.9044  168.0337 C.ar    1  UNL1        0.0147
     36 C         138.6466  139.4872  166.7141 C.ar    1  UNL1        0.0043
     37 C         139.2024  140.0507  165.4398 C.ar    1  UNL1        0.0351
     38 C         138.6239  139.6336  164.1202 C.ar    1  UNL1        0.0141
     39 C         139.1796  140.1970  162.8460 C.ar    1  UNL1        0.1293
     40 C         140.3139  141.1776  162.8914 C.ar    1  UNL1        0.3502
     41 O         140.8696  141.7410  161.6172 O.2     1  UNL1       -0.2443
     42 O         140.8924  141.5947  164.2110 O.2     1  UNL1       -0.4209
     43 C         140.3366  141.0312  165.4852 C.ar    1  UNL1        0.1499
     44 C         140.9150  141.4483  166.8049 C.ar    1  UNL1        0.0521
     45 N         140.9378  141.3020  169.3987 N.pl3   1  UNL1       -0.3074
     46 C         142.4730  139.2111  169.5439 C.3     1  UNL1        0.0232
     47 C         142.1736  140.6316  169.9214 C.3     1  UNL1        0.0908
     48 C         140.2804  142.3895  170.1956 C.3     1  UNL1        0.0908
     49 C         140.4428  143.8230  169.7850 C.3     1  UNL1        0.0232
@<TRIPOS>BOND
     1    46    47    1
     2    47    45    1
     3    45    48    1
     4    48    49    1
     5    45    34    1
     6    34    35   ar
     7    35    36   ar
     8    36    37   ar
     9    37    38   ar
    10    38    39   ar
    11    39    30    1
    12    30    31    2
    13    30    32   am
    14    32    29    1
    15    29    28    1
    16    28    27    1
    17    27    26    1
    18    26     1    1
    19     1     2    1
    20     2     3    1
    21     3     4    1
    22     4     7    1
    23     7     9    1
    24     9    10   ar
    25    10    11   ar
    26    11    12   ar
    27    12    13   ar
    28    13    14   ar
    29    14    15   ar
    30    15    16   ar
    31    16    17   ar
    32    17    18    1
    33    18    19    1
    34    19    20   ar
    35    20    21   ar
    36    21    22   ar
    37    22    23    1
    38    22    24   ar
    39    24    25   ar
    40     4     5    1
    41     5     6    1
    42    39    40   ar
    43    40    41    2
    44    40    42   ar
    45    42    43   ar
    46    43    44   ar
    47    44    34   ar
    48    43    37   ar
    49     6     1    1
    50    17     9   ar
    51    25    19   ar
    52    16    11   ar
    53    32    33    1
    54     7     8    1
@<TRIPOS>MOLECULE
*****
 49 54 0 0 0
SMALL
GASTEIGER

@<TRIPOS>ATOM
      1 N         142.5947  142.1458  156.7363 N.3     1  UNL1       -0.2726
      2 C         142.4843  143.5806  156.3130 C.3     1  UNL1        0.0738
      3 C         142.2208  144.6460  157.3355 C.3     1  UNL1        0.0369
      4 C         142.0677  144.2767  158.7812 C.3     1  UNL1        0.0745
      5 C         142.1780  142.8419  159.2045 C.3     1  UNL1        0.0369
      6 C         142.4415  141.7764  158.1821 C.3     1  UNL1        0.0738
      7 N         141.8042  145.3422  159.8036 N.pl3   1  UNL1       -0.3058
      8 H         142.1537  146.2524  159.6673 H       1  UNL1        0.1495
      9 C         141.0082  145.0208  161.0336 C.ar    1  UNL1        0.1981
     10 N         139.5130  145.0534  161.1497 N.ar    1  UNL1       -0.2138
     11 C         139.1483  144.6632  162.5513 C.ar    1  UNL1        0.0999
     12 C         137.8240  144.5217  163.2415 C.ar    1  UNL1        0.0207
     13 C         137.7695  144.1065  164.6819 C.ar    1  UNL1        0.0016
     14 C         139.0392  143.8328  165.4321 C.ar    1  UNL1        0.0016
     15 C         140.3635  143.9742  164.7420 C.ar    1  UNL1        0.0188
     16 C         140.4181  144.3894  163.3016 C.ar    1  UNL1        0.0801
     17 N         141.5675  144.6104  162.3636 N.ar    1  UNL1       -0.2956
     18 C         143.0211  144.4494  162.6970 C.3     1  UNL1        0.1354
     19 C         143.5725  143.0902  163.0107 C.ar    1  UNL1        0.0006
     20 C         144.9910  142.9457  163.4766 C.ar    1  UNL1       -0.0001
     21 C         145.5425  141.5865  163.7903 C.ar    1  UNL1        0.0294
     22 C         144.6756  140.3719  163.6381 C.ar    1  UNL1        0.1401
     23 F         145.2271  139.0126  163.9518 F       1  UNL1       -0.2042
     24 C         143.2572  140.5165  163.1722 C.ar    1  UNL1        0.0294
     25 C         142.7056  141.8756  162.8585 C.ar    1  UNL1       -0.0001
     26 C         142.8582  141.0803  155.7138 C.3     1  UNL1        0.0722
     27 C         141.7117  140.4113  155.0152 C.3     1  UNL1        0.0191
     28 C         140.5938  141.2362  154.4495 C.3     1  UNL1        0.0227
     29 C         139.3319  141.4298  155.2368 C.3     1  UNL1        0.0897
     30 C         139.0293  140.2981  157.5559 C.2     1  UNL1        0.2522
     31 O         138.6195  139.0232  156.8802 O.2     1  UNL1       -0.2699
     32 N         139.3856  141.5015  156.7341 N.am    1  UNL1       -0.3007
     33 H         139.6546  142.3383  157.1776 H       1  UNL1        0.1497
     34 C         139.6743  139.3867  164.3384 C.ar    1  UNL1        0.0509
     35 C         140.0509  138.1169  163.6344 C.ar    1  UNL1        0.0147
     36 C         139.9972  138.0452  162.1370 C.ar    1  UNL1        0.0043
     37 C         139.5670  139.2434  161.3438 C.ar    1  UNL1        0.0351
     38 C         139.5133  139.1717  159.8465 C.ar    1  UNL1        0.0141
     39 C         139.0830  140.3698  159.0532 C.ar    1  UNL1        0.1293
     40 C         138.7064  141.6397  159.7572 C.ar    1  UNL1        0.3502
     41 O         138.2762  142.8379  158.9640 O.2     1  UNL1       -0.2443
     42 O         138.7601  141.7114  161.2546 O.2     1  UNL1       -0.4209
     43 C         139.1904  140.5132  162.0478 C.ar    1  UNL1        0.1499
     44 C         139.2441  140.5849  163.5452 C.ar    1  UNL1        0.0521
     45 N         139.7280  139.4584  165.8358 N.pl3   1  UNL1       -0.3074
     46 C         137.8024  137.9236  166.6642 C.3     1  UNL1        0.0232
     47 C         138.4779  139.2627  166.6413 C.3     1  UNL1        0.0908
     48 C         141.0318  139.7258  166.5275 C.3     1  UNL1        0.0908
     49 C         141.2696  141.0483  167.1942 C.3     1  UNL1        0.0232
@<TRIPOS>BOND
     1    46    47    1
     2    47    45    1
     3    45    48    1
     4    48    49    1
     5    45    34    1
     6    34    35   ar
     7    35    36   ar
     8    36    37   ar
     9    37    38   ar
    10    38    39   ar
    11    39    30    1
    12    30    31    2
    13    30    32   am
    14    32    29    1
    15    29    28    1
    16    28    27    1
    17    27    26    1
    18    26     1    1
    19     1     2    1
    20     2     3    1
    21     3     4    1
    22     4     7    1
    23     7     9    1
    24     9    10   ar
    25    10    11   ar
    26    11    12   ar
    27    12    13   ar
    28    13    14   ar
    29    14    15   ar
    30    15    16   ar
    31    16    17   ar
    32    17    18    1
    33    18    19    1
    34    19    20   ar
    35    20    21   ar
    36    21    22   ar
    37    22    23    1
    38    22    24   ar
    39    24    25   ar
    40     4     5    1
    41     5     6    1
    42    39    40   ar
    43    40    41    2
    44    40    42   ar
    45    42    43   ar
    46    43    44   ar
    47    44    34   ar
    48    43    37   ar
    49     6     1    1
    50    17     9   ar
    51    25    19   ar
    52    16    11   ar
    53    32    33    1
    54     7     8    1
@<TRIPOS>MOLECULE
*****
 49 54 0 0 0
SMALL
GASTEIGER

@<TRIPOS>ATOM
      1 N         139.8771  142.7829  157.0238 N.3     1  UNL1       -0.2726
      2 C         139.1426  142.6052  158.3196 C.3     1  UNL1        0.0738
      3 C         139.3777  141.3805  159.1531 C.3     1  UNL1        0.0369
      4 C         140.3471  140.3334  158.6909 C.3     1  UNL1        0.0745
      5 C         141.0817  140.5110  157.3951 C.3     1  UNL1        0.0369
      6 C         140.8466  141.7358  156.5616 C.3     1  UNL1        0.0738
      7 N         140.5822  139.1086  159.5244 N.pl3   1  UNL1       -0.3058
      8 H         140.1757  138.2506  159.2641 H       1  UNL1        0.1495
      9 C         141.4366  139.1912  160.7545 C.ar    1  UNL1        0.1981
     10 N         142.8146  139.7783  160.8330 N.ar    1  UNL1       -0.2138
     11 C         143.2927  139.6511  162.2491 C.ar    1  UNL1        0.0999
     12 C         144.5739  140.0555  162.9160 C.ar    1  UNL1        0.0207
     13 C         144.7725  139.7941  164.3797 C.ar    1  UNL1        0.0016
     14 C         143.6899  139.1284  165.1764 C.ar    1  UNL1        0.0016
     15 C         142.4087  138.7240  164.5094 C.ar    1  UNL1        0.0188
     16 C         142.2100  138.9854  163.0458 C.ar    1  UNL1        0.0801
     17 N         141.0629  138.7011  162.1220 N.ar    1  UNL1       -0.2956
     18 C         139.7692  138.0425  162.4996 C.3     1  UNL1        0.1354
     19 C         139.1817  138.2687  163.8611 C.ar    1  UNL1        0.0006
     20 C         138.9988  137.1135  164.8003 C.ar    1  UNL1       -0.0001
     21 C         138.4113  137.3396  166.1618 C.ar    1  UNL1        0.0294
     22 C         138.0067  138.7209  166.5841 C.ar    1  UNL1        0.1401
     23 F         137.4192  138.9472  167.9456 F       1  UNL1       -0.2042
     24 C         138.1896  139.8761  165.6448 C.ar    1  UNL1        0.0294
     25 C         138.7771  139.6500  164.2833 C.ar    1  UNL1       -0.0001
     26 C         139.6420  144.0076  156.1903 C.3     1  UNL1        0.0722
     27 C         140.6172  145.1465  156.2390 C.3     1  UNL1        0.0191
     28 C         141.5304  145.3019  157.4188 C.3     1  UNL1        0.0227
     29 C         141.0128  145.8973  158.6945 C.3     1  UNL1        0.0897
     30 C         140.3152  145.5428  161.1720 C.2     1  UNL1        0.2522
     31 O         139.3868  146.7172  161.0786 O.2     1  UNL1       -0.2699
     32 N         141.1282  145.1328  159.9799 N.am    1  UNL1       -0.3007
     33 H         141.7376  144.3619  160.0412 H       1  UNL1        0.1497
     34 C         142.1296  142.1696  166.8799 C.ar    1  UNL1        0.0509
     35 C         143.3669  142.6189  166.1608 C.ar    1  UNL1        0.0147
     36 C         143.2515  143.3834  164.8754 C.ar    1  UNL1        0.0043
     37 C         141.8988  143.6986  164.3091 C.ar    1  UNL1        0.0351
     38 C         141.7833  144.4631  163.0237 C.ar    1  UNL1        0.0141
     39 C         140.4306  144.7783  162.4574 C.ar    1  UNL1        0.1293
     40 C         139.1932  144.3289  163.1765 C.ar    1  UNL1        0.3502
     41 O         137.8405  144.6441  162.6102 O.2     1  UNL1       -0.2443
     42 O         139.3086  143.5645  164.4619 O.2     1  UNL1       -0.4209
     43 C         140.6615  143.2493  165.0282 C.ar    1  UNL1        0.1499
     44 C         140.7769  142.4848  166.3136 C.ar    1  UNL1        0.0521
     45 N         142.2450  141.4051  168.1652 N.pl3   1  UNL1       -0.3074
     46 C         142.8861  142.8653  170.2163 C.3     1  UNL1        0.0232
     47 C         143.2477  141.8237  169.1994 C.3     1  UNL1        0.0908
     48 C         141.3578  140.2221  168.4165 C.3     1  UNL1        0.0908
     49 C         141.3952  139.5251  169.7442 C.3     1  UNL1        0.0232
@<TRIPOS>BOND
     1    46    47    1
     2    47    45    1
     3    45    48    1
     4    48    49    1
     5    45    34    1
     6    34    35   ar
     7    35    36   ar
     8    36    37   ar
     9    37    38   ar
    10    38    39   ar
    11    39    30    1
    12    30    31    2
    13    30    32   am
    14    32    29    1
    15    29    28    1
    16    28    27    1
    17    27    26    1
    18    26     1    1
    19     1     2    1
    20     2     3    1
    21     3     4    1
    22     4     7    1
    23     7     9    1
    24     9    10   ar
    25    10    11   ar
    26    11    12   ar
    27    12    13   ar
    28    13    14   ar
    29    14    15   ar
    30    15    16   ar
    31    16    17   ar
    32    17    18    1
    33    18    19    1
    34    19    20   ar
    35    20    21   ar
    36    21    22   ar
    37    22    23    1
    38    22    24   ar
    39    24    25   ar
    40     4     5    1
    41     5     6    1
    42    39    40   ar
    43    40    41    2
    44    40    42   ar
    45    42    43   ar
    46    43    44   ar
    47    44    34   ar
    48    43    37   ar
    49     6     1    1
    50    17     9   ar
    51    25    19   ar
    52    16    11   ar
    53    32    33    1
    54     7     8    1
@<TRIPOS>MOLECULE
*****
 49 54 0 0 0
SMALL
GASTEIGER

@<TRIPOS>ATOM
      1 N         138.1608  143.0543  156.1241 N.3     1  UNL1       -0.2726
      2 C         137.0894  142.2392  156.7857 C.3     1  UNL1        0.0738
      3 C         137.3965  140.8567  157.2803 C.3     1  UNL1        0.0369
      4 C         138.7750  140.2894  157.1132 C.3     1  UNL1        0.0745
      5 C         139.8464  141.1045  156.4516 C.3     1  UNL1        0.0369
      6 C         139.5393  142.4870  155.9571 C.3     1  UNL1        0.0738
      7 N         139.0821  138.9070  157.6078 N.pl3   1  UNL1       -0.3058
      8 H         138.6291  138.1294  157.2085 H       1  UNL1        0.1495
      9 C         140.0793  138.7093  158.7107 C.ar    1  UNL1        0.1981
     10 N         141.5474  138.4557  158.5369 N.ar    1  UNL1       -0.2138
     11 C         142.1590  138.3201  159.8998 C.ar    1  UNL1        0.0999
     12 C         143.5677  138.0640  160.3469 C.ar    1  UNL1        0.0207
     13 C         143.8862  137.9777  161.8102 C.ar    1  UNL1        0.0016
     14 C         142.7961  138.1476  162.8263 C.ar    1  UNL1        0.0016
     15 C         141.3873  138.4038  162.3793 C.ar    1  UNL1        0.0188
     16 C         141.0688  138.4901  160.9161 C.ar    1  UNL1        0.0801
     17 N         139.7835  138.7306  160.1811 N.ar    1  UNL1       -0.2956
     18 C         138.4385  138.9533  160.8068 C.3     1  UNL1        0.1354
     19 C         138.1588  140.2252  161.5509 C.ar    1  UNL1        0.0006
     20 C         137.8577  140.1841  163.0198 C.ar    1  UNL1       -0.0001
     21 C         137.5779  141.4560  163.7640 C.ar    1  UNL1        0.0294
     22 C         137.5992  142.7691  163.0393 C.ar    1  UNL1        0.1401
     23 F         137.3194  144.0412  163.7834 F       1  UNL1       -0.2042
     24 C         137.9002  142.8103  161.5704 C.ar    1  UNL1        0.0294
     25 C         138.1800  141.5384  160.8262 C.ar    1  UNL1       -0.0001
     26 C         137.8537  144.4367  155.6295 C.3     1  UNL1        0.0722
     27 C         138.9608  145.4332  155.4528 C.3     1  UNL1        0.0191
     28 C         139.3653  146.3156  156.5963 C.3     1  UNL1        0.0227
     29 C         140.5133  145.9220  157.4778 C.3     1  UNL1        0.0897
     30 C         141.3486  144.9086  159.7196 C.2     1  UNL1        0.2522
     31 O         142.6726  144.5989  159.0863 O.2     1  UNL1       -0.2699
     32 N         140.2689  145.5702  158.9153 N.am    1  UNL1       -0.3007
     33 H         139.3999  145.7735  159.3310 H       1  UNL1        0.1497
     34 C         140.8829  142.2041  166.0218 C.ar    1  UNL1        0.0509
     35 C         141.6393  141.2586  165.1365 C.ar    1  UNL1        0.0147
     36 C         141.8837  141.6105  163.6989 C.ar    1  UNL1        0.0043
     37 C         141.3717  142.9077  163.1468 C.ar    1  UNL1        0.0351
     38 C         141.6161  143.2595  161.7093 C.ar    1  UNL1        0.0141
     39 C         141.1041  144.5568  161.1571 C.ar    1  UNL1        0.1293
     40 C         140.3477  145.5023  162.0425 C.ar    1  UNL1        0.3502
     41 O         139.8357  146.7996  161.4903 O.2     1  UNL1       -0.2443
     42 O         140.1032  145.1505  163.4800 O.2     1  UNL1       -0.4209
     43 C         140.6153  143.8531  164.0321 C.ar    1  UNL1        0.1499
     44 C         140.3709  143.5013  165.4697 C.ar    1  UNL1        0.0521
     45 N         140.6385  141.8523  167.4594 N.pl3   1  UNL1       -0.3074
     46 C         139.8762  140.0477  169.1660 C.3     1  UNL1        0.0232
     47 C         139.7760  140.6754  167.8073 C.3     1  UNL1        0.0908
     48 C         141.2564  142.6773  168.5490 C.3     1  UNL1        0.0908
     49 C         140.3942  143.5590  169.4028 C.3     1  UNL1        0.0232
@<TRIPOS>BOND
     1    46    47    1
     2    47    45    1
     3    45    48    1
     4    48    49    1
     5    45    34    1
     6    34    35   ar
     7    35    36   ar
     8    36    37   ar
     9    37    38   ar
    10    38    39   ar
    11    39    30    1
    12    30    31    2
    13    30    32   am
    14    32    29    1
    15    29    28    1
    16    28    27    1
    17    27    26    1
    18    26     1    1
    19     1     2    1
    20     2     3    1
    21     3     4    1
    22     4     7    1
    23     7     9    1
    24     9    10   ar
    25    10    11   ar
    26    11    12   ar
    27    12    13   ar
    28    13    14   ar
    29    14    15   ar
    30    15    16   ar
    31    16    17   ar
    32    17    18    1
    33    18    19    1
    34    19    20   ar
    35    20    21   ar
    36    21    22   ar
    37    22    23    1
    38    22    24   ar
    39    24    25   ar
    40     4     5    1
    41     5     6    1
    42    39    40   ar
    43    40    41    2
    44    40    42   ar
    45    42    43   ar
    46    43    44   ar
    47    44    34   ar
    48    43    37   ar
    49     6     1    1
    50    17     9   ar
    51    25    19   ar
    52    16    11   ar
    53    32    33    1
    54     7     8    1
@<TRIPOS>MOLECULE
*****
 49 54 0 0 0
SMALL
GASTEIGER

@<TRIPOS>ATOM
      1 N         139.8767  142.8874  156.6531 N.3     1  UNL1       -0.2726
      2 C         138.9544  142.6552  157.8131 C.3     1  UNL1        0.0738
      3 C         139.1886  141.4973  158.7374 C.3     1  UNL1        0.0369
      4 C         140.3450  140.5714  158.5017 C.3     1  UNL1        0.0745
      5 C         141.2673  140.8036  157.3417 C.3     1  UNL1        0.0369
      6 C         141.0332  141.9615  156.4174 C.3     1  UNL1        0.0738
      7 N         140.5791  139.4135  159.4260 N.pl3   1  UNL1       -0.3058
      8 H         140.0906  138.5694  159.2912 H       1  UNL1        0.1495
      9 C         141.5575  139.5415  160.5557 C.ar    1  UNL1        0.1981
     10 N         142.8262  140.3415  160.5369 N.ar    1  UNL1       -0.2138
     11 C         143.4918  140.1864  161.8722 C.ar    1  UNL1        0.0999
     12 C         144.7678  140.7452  162.4285 C.ar    1  UNL1        0.0207
     13 C         145.1864  140.4082  163.8290 C.ar    1  UNL1        0.0016
     14 C         144.3290  139.5125  164.6730 C.ar    1  UNL1        0.0016
     15 C         143.0530  138.9537  164.1167 C.ar    1  UNL1        0.0188
     16 C         142.6344  139.2907  162.7163 C.ar    1  UNL1        0.0801
     17 N         141.4389  138.8921  161.9027 N.ar    1  UNL1       -0.2956
     18 C         140.3211  138.0006  162.3564 C.3     1  UNL1        0.1354
     19 C         139.6140  138.2829  163.6487 C.ar    1  UNL1        0.0006
     20 C         139.3044  139.6973  164.0407 C.ar    1  UNL1       -0.0001
     21 C         138.5972  139.9797  165.3331 C.ar    1  UNL1        0.0294
     22 C         138.1997  138.8477  166.2334 C.ar    1  UNL1        0.1401
     23 F         137.4925  139.1300  167.5258 F       1  UNL1       -0.2042
     24 C         138.5093  137.4334  165.8413 C.ar    1  UNL1        0.0294
     25 C         139.2164  137.1510  164.5490 C.ar    1  UNL1       -0.0001
     26 C         139.6426  144.0453  155.7288 C.3     1  UNL1        0.0722
     27 C         140.0719  145.4251  156.1315 C.3     1  UNL1        0.0191
     28 C         141.0075  145.6115  157.2891 C.3     1  UNL1        0.0227
     29 C         140.4614  145.9033  158.6553 C.3     1  UNL1        0.0897
     30 C         140.5159  145.4923  161.2201 C.2     1  UNL1        0.2522
     31 O         139.6929  146.7277  161.4356 O.2     1  UNL1       -0.2699
     32 N         140.9002  145.0801  159.8299 N.am    1  UNL1       -0.3007
     33 H         141.4403  144.2692  159.6885 H       1  UNL1        0.1497
     34 C         141.3660  142.0423  167.1044 C.ar    1  UNL1        0.0509
     35 C         140.0221  142.7084  167.1155 C.ar    1  UNL1        0.0147
     36 C         139.5833  143.5317  165.9409 C.ar    1  UNL1        0.0043
     37 C         140.4884  143.6888  164.7551 C.ar    1  UNL1        0.0351
     38 C         140.0496  144.5120  163.5805 C.ar    1  UNL1        0.0141
     39 C         140.9547  144.6691  162.3948 C.ar    1  UNL1        0.1293
     40 C         142.2987  144.0029  162.3836 C.ar    1  UNL1        0.3502
     41 O         143.2038  144.1601  161.1979 O.2     1  UNL1       -0.2443
     42 O         142.7375  143.1797  163.5582 O.2     1  UNL1       -0.4209
     43 C         141.8323  143.0226  164.7440 C.ar    1  UNL1        0.1499
     44 C         142.2711  142.1994  165.9187 C.ar    1  UNL1        0.0521
     45 N         141.8047  141.2191  168.2791 N.pl3   1  UNL1       -0.3074
     46 C         140.0168  140.3566  169.9551 C.3     1  UNL1        0.0232
     47 C         140.9287  140.1136  168.7892 C.3     1  UNL1        0.0908
     48 C         143.1195  141.5014  168.9435 C.3     1  UNL1        0.0908
     49 C         143.2070  142.5401  170.0222 C.3     1  UNL1        0.0232
@<TRIPOS>BOND
     1    46    47    1
     2    47    45    1
     3    45    48    1
     4    48    49    1
     5    45    34    1
     6    34    35   ar
     7    35    36   ar
     8    36    37   ar
     9    37    38   ar
    10    38    39   ar
    11    39    30    1
    12    30    31    2
    13    30    32   am
    14    32    29    1
    15    29    28    1
    16    28    27    1
    17    27    26    1
    18    26     1    1
    19     1     2    1
    20     2     3    1
    21     3     4    1
    22     4     7    1
    23     7     9    1
    24     9    10   ar
    25    10    11   ar
    26    11    12   ar
    27    12    13   ar
    28    13    14   ar
    29    14    15   ar
    30    15    16   ar
    31    16    17   ar
    32    17    18    1
    33    18    19    1
    34    19    20   ar
    35    20    21   ar
    36    21    22   ar
    37    22    23    1
    38    22    24   ar
    39    24    25   ar
    40     4     5    1
    41     5     6    1
    42    39    40   ar
    43    40    41    2
    44    40    42   ar
    45    42    43   ar
    46    43    44   ar
    47    44    34   ar
    48    43    37   ar
    49     6     1    1
    50    17     9   ar
    51    25    19   ar
    52    16    11   ar
    53    32    33    1
    54     7     8    1
@<TRIPOS>MOLECULE
*****
 49 54 0 0 0
SMALL
GASTEIGER

@<TRIPOS>ATOM
      1 N         139.4799  143.4149  155.5637 N.3     1  UNL1       -0.2726
      2 C         138.8292  143.4126  156.9151 C.3     1  UNL1        0.0738
      3 C         138.6365  142.1207  157.6527 C.3     1  UNL1        0.0369
      4 C         139.0946  140.8311  157.0387 C.3     1  UNL1        0.0745
      5 C         139.7454  140.8333  155.6872 C.3     1  UNL1        0.0369
      6 C         139.9381  142.1252  154.9497 C.3     1  UNL1        0.0738
      7 N         138.9020  139.5392  157.7762 N.pl3   1  UNL1       -0.3058
      8 H         138.1276  138.9666  157.5721 H       1  UNL1        0.1495
      9 C         139.8892  139.1198  158.8248 C.ar    1  UNL1        0.1981
     10 N         141.3425  138.8248  158.5998 N.ar    1  UNL1       -0.2138
     11 C         141.9479  138.4444  159.9184 C.ar    1  UNL1        0.0999
     12 C         143.3424  138.0512  160.3065 C.ar    1  UNL1        0.0207
     13 C         143.6577  137.7180  161.7347 C.ar    1  UNL1        0.0016
     14 C         142.5785  137.7780  162.7747 C.ar    1  UNL1        0.0016
     15 C         141.1840  138.1712  162.3866 C.ar    1  UNL1        0.0188
     16 C         140.8686  138.5044  160.9585 C.ar    1  UNL1        0.0801
     17 N         139.5963  138.9218  160.2826 N.ar    1  UNL1       -0.2956
     18 C         138.2648  139.1084  160.9477 C.3     1  UNL1        0.1354
     19 C         138.0602  140.2386  161.9125 C.ar    1  UNL1        0.0006
     20 C         137.9317  141.6442  161.4047 C.ar    1  UNL1       -0.0001
     21 C         137.7271  142.7743  162.3695 C.ar    1  UNL1        0.0294
     22 C         137.6509  142.4989  163.8420 C.ar    1  UNL1        0.1401
     23 F         137.4463  143.6291  164.8069 F       1  UNL1       -0.2042
     24 C         137.7794  141.0934  164.3498 C.ar    1  UNL1        0.0294
     25 C         137.9840  139.9632  163.3850 C.ar    1  UNL1       -0.0001
     26 C         139.6725  144.7068  154.8262 C.3     1  UNL1        0.0722
     27 C         140.4711  145.8137  155.4484 C.3     1  UNL1        0.0191
     28 C         141.8008  145.5178  156.0764 C.3     1  UNL1        0.0227
     29 C         142.0997  146.0035  157.4637 C.3     1  UNL1        0.0897
     30 C         141.1056  144.9806  159.6353 C.2     1  UNL1        0.2522
     31 O         139.9348  145.9132  159.5387 O.2     1  UNL1       -0.2699
     32 N         142.1881  145.0257  158.5978 N.am    1  UNL1       -0.3007
     33 H         142.9565  144.4136  158.6613 H       1  UNL1        0.1497
     34 C         141.2176  141.5294  165.5789 C.ar    1  UNL1        0.0509
     35 C         140.8875  142.9669  165.8520 C.ar    1  UNL1        0.0147
     36 C         140.7991  143.9446  164.7179 C.ar    1  UNL1        0.0043
     37 C         141.0408  143.4849  163.3107 C.ar    1  UNL1        0.0351
     38 C         140.9523  144.4626  162.1766 C.ar    1  UNL1        0.0141
     39 C         141.1940  144.0029  160.7694 C.ar    1  UNL1        0.1293
     40 C         141.5241  142.5653  160.4963 C.ar    1  UNL1        0.3502
     41 O         141.7658  142.1056  159.0891 O.2     1  UNL1       -0.2443
     42 O         141.6125  141.5876  161.6304 O.2     1  UNL1       -0.4209
     43 C         141.3708  142.0474  163.0376 C.ar    1  UNL1        0.1499
     44 C         141.4593  141.0697  164.1718 C.ar    1  UNL1        0.0521
     45 N         141.3060  140.5517  166.7130 N.pl3   1  UNL1       -0.3074
     46 C         139.8467  140.4306  168.8591 C.3     1  UNL1        0.0232
     47 C         140.0584  140.0986  167.4117 C.3     1  UNL1        0.0908
     48 C         142.6420  140.0269  167.1485 C.3     1  UNL1        0.0908
     49 C         143.2690  138.8751  166.4204 C.3     1  UNL1        0.0232
@<TRIPOS>BOND
     1    46    47    1
     2    47    45    1
     3    45    48    1
     4    48    49    1
     5    45    34    1
     6    34    35   ar
     7    35    36   ar
     8    36    37   ar
     9    37    38   ar
    10    38    39   ar
    11    39    30    1
    12    30    31    2
    13    30    32   am
    14    32    29    1
    15    29    28    1
    16    28    27    1
    17    27    26    1
    18    26     1    1
    19     1     2    1
    20     2     3    1
    21     3     4    1
    22     4     7    1
    23     7     9    1
    24     9    10   ar
    25    10    11   ar
    26    11    12   ar
    27    12    13   ar
    28    13    14   ar
    29    14    15   ar
    30    15    16   ar
    31    16    17   ar
    32    17    18    1
    33    18    19    1
    34    19    20   ar
    35    20    21   ar
    36    21    22   ar
    37    22    23    1
    38    22    24   ar
    39    24    25   ar
    40     4     5    1
    41     5     6    1
    42    39    40   ar
    43    40    41    2
    44    40    42   ar
    45    42    43   ar
    46    43    44   ar
    47    44    34   ar
    48    43    37   ar
    49     6     1    1
    50    17     9   ar
    51    25    19   ar
    52    16    11   ar
    53    32    33    1
    54     7     8    1
@<TRIPOS>MOLECULE
*****
 49 54 0 0 0
SMALL
GASTEIGER

@<TRIPOS>ATOM
      1 N         139.8557  140.0870  167.0511 N.3     1  UNL1       -0.2726
      2 C         138.6625  139.1809  166.9783 C.3     1  UNL1        0.0738
      3 C         138.3944  138.3926  165.7306 C.3     1  UNL1        0.0369
      4 C         139.3195  138.5105  164.5557 C.3     1  UNL1        0.0745
      5 C         140.5127  139.4166  164.6285 C.3     1  UNL1        0.0369
      6 C         140.7808  140.2049  165.8762 C.3     1  UNL1        0.0738
      7 N         139.0514  137.7222  163.3080 N.pl3   1  UNL1       -0.3058
      8 H         138.5820  136.8585  163.3628 H       1  UNL1        0.1495
      9 C         139.4984  138.2498  161.9770 C.ar    1  UNL1        0.1981
     10 N         140.6538  137.7382  161.1687 N.ar    1  UNL1       -0.2138
     11 C         140.7381  138.5539  159.9127 C.ar    1  UNL1        0.0999
     12 C         141.6769  138.5029  158.7439 C.ar    1  UNL1        0.0207
     13 C         141.5124  139.4677  157.6072 C.ar    1  UNL1        0.0016
     14 C         140.4090  140.4834  157.6392 C.ar    1  UNL1        0.0016
     15 C         139.4702  140.5343  158.8079 C.ar    1  UNL1        0.0188
     16 C         139.6347  139.5696  159.9447 C.ar    1  UNL1        0.0801
     17 N         138.8686  139.3816  161.2205 N.ar    1  UNL1       -0.2956
     18 C         137.6811  140.1845  161.6622 C.3     1  UNL1        0.1354
     19 C         137.8796  141.4505  162.4418 C.ar    1  UNL1        0.0006
     20 C         138.3348  142.6976  161.7435 C.ar    1  UNL1       -0.0001
     21 C         138.5334  143.9637  162.5230 C.ar    1  UNL1        0.0294
     22 C         138.2768  143.9827  164.0008 C.ar    1  UNL1        0.1401
     23 F         138.4754  145.2487  164.7804 F       1  UNL1       -0.2042
     24 C         137.8216  142.7356  164.6990 C.ar    1  UNL1        0.0294
     25 C         137.6230  141.4695  163.9195 C.ar    1  UNL1       -0.0001
     26 C         140.1238  140.8753  168.2988 C.3     1  UNL1        0.0722
     27 C         140.8152  142.2037  168.2127 C.3     1  UNL1        0.0191
     28 C         142.1783  142.3801  168.8134 C.3     1  UNL1        0.0227
     29 C         143.3846  142.4604  167.9255 C.3     1  UNL1        0.0897
     30 C         144.1426  143.1921  165.5506 C.2     1  UNL1        0.2522
     31 O         145.2213  144.0403  166.1563 O.2     1  UNL1       -0.2699
     32 N         143.2242  142.4021  166.4353 N.am    1  UNL1       -0.3007
     33 H         142.5161  141.8453  166.0378 H       1  UNL1        0.1497
     34 C         142.4105  143.7427  158.9214 C.ar    1  UNL1        0.0509
     35 C         141.4804  144.5848  159.7435 C.ar    1  UNL1        0.0147
     36 C         141.6408  144.6431  161.2337 C.ar    1  UNL1        0.0043
     37 C         142.7313  143.8593  161.9019 C.ar    1  UNL1        0.0351
     38 C         142.8917  143.9176  163.3922 C.ar    1  UNL1        0.0141
     39 C         143.9822  143.1338  164.0604 C.ar    1  UNL1        0.1293
     40 C         144.9123  142.2916  163.2383 C.ar    1  UNL1        0.3502
     41 O         146.0027  141.5079  163.9065 O.2     1  UNL1       -0.2443
     42 O         144.7519  142.2334  161.7480 O.2     1  UNL1       -0.4209
     43 C         143.6614  143.0172  161.0799 C.ar    1  UNL1        0.1499
     44 C         143.5010  142.9589  159.5896 C.ar    1  UNL1        0.0521
     45 N         142.2501  143.6844  157.4311 N.pl3   1  UNL1       -0.3074
     46 C         142.7406  142.3807  155.2381 C.3     1  UNL1        0.0232
     47 C         143.1565  142.8135  156.6127 C.3     1  UNL1        0.0908
     48 C         141.1833  144.4970  156.7593 C.3     1  UNL1        0.0908
     49 C         139.7971  143.9423  156.6149 C.3     1  UNL1        0.0232
@<TRIPOS>BOND
     1    46    47    1
     2    47    45    1
     3    45    48    1
     4    48    49    1
     5    45    34    1
     6    34    35   ar
     7    35    36   ar
     8    36    37   ar
     9    37    38   ar
    10    38    39   ar
    11    39    30    1
    12    30    31    2
    13    30    32   am
    14    32    29    1
    15    29    28    1
    16    28    27    1
    17    27    26    1
    18    26     1    1
    19     1     2    1
    20     2     3    1
    21     3     4    1
    22     4     7    1
    23     7     9    1
    24     9    10   ar
    25    10    11   ar
    26    11    12   ar
    27    12    13   ar
    28    13    14   ar
    29    14    15   ar
    30    15    16   ar
    31    16    17   ar
    32    17    18    1
    33    18    19    1
    34    19    20   ar
    35    20    21   ar
    36    21    22   ar
    37    22    23    1
    38    22    24   ar
    39    24    25   ar
    40     4     5    1
    41     5     6    1
    42    39    40   ar
    43    40    41    2
    44    40    42   ar
    45    42    43   ar
    46    43    44   ar
    47    44    34   ar
    48    43    37   ar
    49     6     1    1
    50    17     9   ar
    51    25    19   ar
    52    16    11   ar
    53    32    33    1
    54     7     8    1
