@<TRIPOS>MOLECULE
*****
 33 35 0 0 0
SMALL
GASTEIGER

@<TRIPOS>ATOM
      1 C         138.3715  144.7012  162.9915 C.3     1  UNL1        0.1020
      2 C         139.4722  145.5673  162.4545 C.3     1  UNL1        0.1697
      3 O         139.1774  146.5789  161.3868 O.3     1  UNL1       -0.3793
      4 H         138.2352  146.5432  161.1589 H       1  UNL1        0.2106
      5 C         140.8676  145.4219  162.9851 C.3     1  UNL1        0.2358
      6 O         141.5051  144.0660  163.0573 O.3     1  UNL1       -0.4728
      7 C         141.8302  143.4601  164.3904 C.ar    1  UNL1        0.1387
      8 C         143.2534  143.1446  164.7438 C.ar    1  UNL1        0.0366
      9 C         143.5785  142.5387  166.0769 C.ar    1  UNL1       -0.0011
     10 C         142.4804  142.2484  167.0566 C.ar    1  UNL1       -0.0216
     11 C         141.0572  142.5639  166.7032 C.ar    1  UNL1       -0.0011
     12 C         140.7321  143.1697  165.3701 C.ar    1  UNL1        0.0366
     13 C         142.8055  141.6425  168.3898 C.3     1  UNL1        0.0323
     14 C         143.0806  142.5278  169.5690 C.3     1  UNL1        0.0464
     15 C         141.9606  142.9302  170.4822 C.2     1  UNL1        0.0507
     16 O         141.7395  142.1912  171.7686 O.co2   1  UNL1       -0.5492
     17 O         141.0618  144.0715  170.1089 O.co2   1  UNL1       -0.5492
     18 N         137.7231  143.6778  162.1069 N.3     1  UNL1       -0.2972
     19 H         136.7319  143.9138  162.0612 H       1  UNL1        0.1233
     20 C         138.1516  141.8978  161.0355 C.3     1  UNL1        0.0161
     21 C         137.8059  142.2220  162.4587 C.3     1  UNL1        0.0461
     22 C         137.4603  142.5462  163.8818 C.3     1  UNL1        0.0161
     23 C         137.8887  140.7662  162.8104 C.3     1  UNL1        0.0408
     24 C         139.0404  140.2557  163.6248 C.ar    1  UNL1       -0.0209
     25 C         138.7985  139.6849  164.9906 C.ar    1  UNL1       -0.0042
     26 C         139.9501  139.1744  165.8050 C.ar    1  UNL1       -0.0003
     27 C         141.3438  139.2347  165.2534 C.ar    1  UNL1       -0.0000
     28 C         142.4954  138.7242  166.0677 C.ar    1  UNL1       -0.0000
     29 C         143.8889  138.7845  165.5162 C.ar    1  UNL1       -0.0000
     30 C         144.1309  139.3554  164.1503 C.ar    1  UNL1       -0.0000
     31 C         142.9793  139.8658  163.3360 C.ar    1  UNL1       -0.0000
     32 C         141.5857  139.8055  163.8875 C.ar    1  UNL1       -0.0003
     33 C         140.4340  140.3160  163.0732 C.ar    1  UNL1       -0.0042
@<TRIPOS>UNITY_ATOM_ATTR
16 1
charge -1
@<TRIPOS>BOND
     1    20    21    1
     2    21    22    1
     3    21    23    1
     4    23    24    1
     5    24    25   ar
     6    25    26   ar
     7    26    27   ar
     8    27    28   ar
     9    28    29   ar
    10    29    30   ar
    11    30    31   ar
    12    31    32   ar
    13    32    33   ar
    14    21    18    1
    15    18     1    1
    16     1     2    1
    17     2     3    1
    18     2     5    1
    19     5     6    1
    20     6     7    1
    21     7     8   ar
    22     8     9   ar
    23     9    10   ar
    24    10    13    1
    25    13    14    1
    26    14    15    1
    27    15    16   ar
    28    15    17   ar
    29    10    11   ar
    30    11    12   ar
    31    33    24   ar
    32    12     7   ar
    33    32    27   ar
    34    18    19    1
    35     3     4    1
@<TRIPOS>MOLECULE
*****
 33 35 0 0 0
SMALL
GASTEIGER

@<TRIPOS>ATOM
      1 C         144.7034  142.9072  161.4572 C.3     1  UNL1        0.1020
      2 C         145.1088  141.7526  162.3246 C.3     1  UNL1        0.1697
      3 O         146.3861  141.8157  163.1086 O.3     1  UNL1       -0.3793
      4 H         146.8256  142.6644  162.9429 H       1  UNL1        0.2106
      5 C         144.2369  140.5349  162.4081 C.3     1  UNL1        0.2358
      6 O         144.4048  139.5686  163.5431 O.3     1  UNL1       -0.4728
      7 C         143.7978  139.8706  164.8812 C.ar    1  UNL1        0.1387
      8 C         143.2824  138.7542  165.7401 C.ar    1  UNL1        0.0366
      9 C         142.6755  139.0562  167.0781 C.ar    1  UNL1       -0.0011
     10 C         142.5839  140.4747  167.5572 C.ar    1  UNL1       -0.0216
     11 C         143.0993  141.5911  166.6983 C.ar    1  UNL1       -0.0011
     12 C         143.7062  141.2891  165.3602 C.ar    1  UNL1        0.0366
     13 C         141.9769  140.7767  168.8953 C.3     1  UNL1        0.0323
     14 C         142.8561  141.1616  170.0480 C.3     1  UNL1        0.0464
     15 C         143.3006  142.5851  170.2096 C.2     1  UNL1        0.0507
     16 O         144.7292  142.9592  169.9466 O.co2   1  UNL1       -0.5492
     17 O         142.3165  143.6346  170.6341 O.co2   1  UNL1       -0.5492
     18 N         144.2334  144.1868  162.0832 N.3     1  UNL1       -0.2972
     19 H         144.8595  144.3795  162.8650 H       1  UNL1        0.1233
     20 C         143.3736  144.6282  163.9716 C.3     1  UNL1        0.0161
     21 C         142.8340  144.2929  162.6127 C.3     1  UNL1        0.0461
     22 C         142.2944  143.9576  161.2539 C.3     1  UNL1        0.0161
     23 C         141.4346  144.3990  163.1423 C.3     1  UNL1        0.0408
     24 C         140.8386  143.2626  163.9192 C.ar    1  UNL1       -0.0209
     25 C         140.2183  143.5156  165.2613 C.ar    1  UNL1       -0.0042
     26 C         139.6222  142.3793  166.0382 C.ar    1  UNL1       -0.0003
     27 C         139.6465  140.9900  165.4731 C.ar    1  UNL1       -0.0000
     28 C         139.0505  139.8538  166.2500 C.ar    1  UNL1       -0.0000
     29 C         139.0748  138.4646  165.6848 C.ar    1  UNL1       -0.0000
     30 C         139.6950  138.2116  164.3427 C.ar    1  UNL1       -0.0000
     31 C         140.2911  139.3479  163.5658 C.ar    1  UNL1       -0.0000
     32 C         140.2668  140.7371  164.1310 C.ar    1  UNL1       -0.0003
     33 C         140.8628  141.8734  163.3540 C.ar    1  UNL1       -0.0042
@<TRIPOS>UNITY_ATOM_ATTR
16 1
charge -1
@<TRIPOS>BOND
     1    20    21    1
     2    21    22    1
     3    21    23    1
     4    23    24    1
     5    24    25   ar
     6    25    26   ar
     7    26    27   ar
     8    27    28   ar
     9    28    29   ar
    10    29    30   ar
    11    30    31   ar
    12    31    32   ar
    13    32    33   ar
    14    21    18    1
    15    18     1    1
    16     1     2    1
    17     2     3    1
    18     2     5    1
    19     5     6    1
    20     6     7    1
    21     7     8   ar
    22     8     9   ar
    23     9    10   ar
    24    10    13    1
    25    13    14    1
    26    14    15    1
    27    15    16   ar
    28    15    17   ar
    29    10    11   ar
    30    11    12   ar
    31    33    24   ar
    32    12     7   ar
    33    32    27   ar
    34    18    19    1
    35     3     4    1
@<TRIPOS>MOLECULE
*****
 33 35 0 0 0
SMALL
GASTEIGER

@<TRIPOS>ATOM
      1 C         141.8537  145.4542  163.6787 C.3     1  UNL1        0.1020
      2 C         142.9827  144.6185  163.1523 C.3     1  UNL1        0.1697
      3 O         144.2010  145.2795  162.5787 O.3     1  UNL1       -0.3793
      4 H         144.0977  146.2429  162.6238 H       1  UNL1        0.2106
      5 C         142.8934  143.1220  163.1994 C.3     1  UNL1        0.2358
      6 O         143.5282  142.3679  164.3300 O.3     1  UNL1       -0.4728
      7 C         142.6743  141.7932  165.4212 C.ar    1  UNL1        0.1387
      8 C         142.9802  140.4333  165.9754 C.ar    1  UNL1        0.0366
      9 C         142.1263  139.8587  167.0665 C.ar    1  UNL1       -0.0011
     10 C         140.9665  140.6439  167.6034 C.ar    1  UNL1       -0.0216
     11 C         140.6606  142.0038  167.0493 C.ar    1  UNL1       -0.0011
     12 C         141.5145  142.5784  165.9582 C.ar    1  UNL1        0.0366
     13 C         140.1125  140.0692  168.6946 C.3     1  UNL1        0.0323
     14 C         139.7264  140.9172  169.8700 C.3     1  UNL1        0.0464
     15 C         140.7284  141.2054  170.9484 C.2     1  UNL1        0.0507
     16 O         142.0529  140.5012  170.9491 O.co2   1  UNL1       -0.5492
     17 O         140.4060  142.1977  172.0261 O.co2   1  UNL1       -0.5492
     18 N         140.6261  145.6680  162.8436 N.3     1  UNL1       -0.2972
     19 H         140.1818  146.5199  163.1860 H       1  UNL1        0.1233
     20 C         139.7869  144.4550  161.3190 C.3     1  UNL1        0.0161
     21 C         139.5603  144.6138  162.7932 C.3     1  UNL1        0.0461
     22 C         139.3336  144.7726  164.2675 C.3     1  UNL1        0.0161
     23 C         138.4944  143.5596  162.7429 C.3     1  UNL1        0.0408
     24 C         138.7468  142.2086  163.3440 C.ar    1  UNL1       -0.0209
     25 C         137.8597  141.6980  164.4405 C.ar    1  UNL1       -0.0042
     26 C         138.1120  140.3471  165.0416 C.ar    1  UNL1       -0.0003
     27 C         139.2516  139.5067  164.5462 C.ar    1  UNL1       -0.0000
     28 C         139.5039  138.1558  165.1473 C.ar    1  UNL1       -0.0000
     29 C         140.6434  137.3155  164.6519 C.ar    1  UNL1       -0.0000
     30 C         141.5306  137.8262  163.5554 C.ar    1  UNL1       -0.0000
     31 C         141.2782  139.1770  162.9543 C.ar    1  UNL1       -0.0000
     32 C         140.1387  140.0173  163.4497 C.ar    1  UNL1       -0.0003
     33 C         139.8863  141.3683  162.8486 C.ar    1  UNL1       -0.0042
@<TRIPOS>UNITY_ATOM_ATTR
16 1
charge -1
@<TRIPOS>BOND
     1    20    21    1
     2    21    22    1
     3    21    23    1
     4    23    24    1
     5    24    25   ar
     6    25    26   ar
     7    26    27   ar
     8    27    28   ar
     9    28    29   ar
    10    29    30   ar
    11    30    31   ar
    12    31    32   ar
    13    32    33   ar
    14    21    18    1
    15    18     1    1
    16     1     2    1
    17     2     3    1
    18     2     5    1
    19     5     6    1
    20     6     7    1
    21     7     8   ar
    22     8     9   ar
    23     9    10   ar
    24    10    13    1
    25    13    14    1
    26    14    15    1
    27    15    16   ar
    28    15    17   ar
    29    10    11   ar
    30    11    12   ar
    31    33    24   ar
    32    12     7   ar
    33    32    27   ar
    34    18    19    1
    35     3     4    1
@<TRIPOS>MOLECULE
*****
 33 35 0 0 0
SMALL
GASTEIGER

@<TRIPOS>ATOM
      1 C         138.0181  138.2946  162.0369 C.3     1  UNL1        0.1020
      2 C         137.8342  139.6395  161.3986 C.3     1  UNL1        0.1697
      3 O         137.2211  139.7443  160.0336 O.3     1  UNL1       -0.3793
      4 H         137.0027  138.8570  159.7082 H       1  UNL1        0.2106
      5 C         138.2633  140.8795  162.1253 C.3     1  UNL1        0.2358
      6 O         137.6306  141.2366  163.4376 O.3     1  UNL1       -0.4728
      7 C         138.4921  141.5534  164.6240 C.ar    1  UNL1        0.1387
      8 C         138.8160  140.4825  165.6231 C.ar    1  UNL1        0.0366
      9 C         139.6774  140.7993  166.8094 C.ar    1  UNL1       -0.0011
     10 C         140.2150  142.1871  166.9967 C.ar    1  UNL1       -0.0216
     11 C         139.8911  143.2581  165.9977 C.ar    1  UNL1       -0.0011
     12 C         139.0297  142.9412  164.8113 C.ar    1  UNL1        0.0366
     13 C         141.0765  142.5039  168.1831 C.3     1  UNL1        0.0323
     14 C         140.4699  143.1260  169.4058 C.3     1  UNL1        0.0464
     15 C         139.9695  142.2558  170.5205 C.2     1  UNL1        0.0507
     16 O         140.6117  142.3277  171.8741 O.co2   1  UNL1       -0.5492
     17 O         138.8270  141.3138  170.2815 O.co2   1  UNL1       -0.5492
     18 N         139.3091  137.5512  161.8611 N.3     1  UNL1       -0.2972
     19 H         139.0664  136.5739  161.6987 H       1  UNL1        0.1233
     20 C         141.4289  137.6034  161.9238 C.3     1  UNL1        0.0161
     21 C         140.3379  137.5663  162.9526 C.3     1  UNL1        0.0461
     22 C         139.2469  137.5292  163.9814 C.3     1  UNL1        0.0161
     23 C         141.3667  137.5814  164.0441 C.3     1  UNL1        0.0408
     24 C         141.9885  138.8781  164.4708 C.ar    1  UNL1       -0.0209
     25 C         142.7436  138.9579  165.7644 C.ar    1  UNL1       -0.0042
     26 C         143.3653  140.2545  166.1912 C.ar    1  UNL1       -0.0003
     27 C         143.2320  141.4714  165.3243 C.ar    1  UNL1       -0.0000
     28 C         143.8538  142.7680  165.7510 C.ar    1  UNL1       -0.0000
     29 C         143.7205  143.9848  164.8841 C.ar    1  UNL1       -0.0000
     30 C         142.9654  143.9050  163.5905 C.ar    1  UNL1       -0.0000
     31 C         142.3436  142.6084  163.1637 C.ar    1  UNL1       -0.0000
     32 C         142.4769  141.3916  164.0306 C.ar    1  UNL1       -0.0003
     33 C         141.8551  140.0949  163.6039 C.ar    1  UNL1       -0.0042
@<TRIPOS>UNITY_ATOM_ATTR
16 1
charge -1
@<TRIPOS>BOND
     1    20    21    1
     2    21    22    1
     3    21    23    1
     4    23    24    1
     5    24    25   ar
     6    25    26   ar
     7    26    27   ar
     8    27    28   ar
     9    28    29   ar
    10    29    30   ar
    11    30    31   ar
    12    31    32   ar
    13    32    33   ar
    14    21    18    1
    15    18     1    1
    16     1     2    1
    17     2     3    1
    18     2     5    1
    19     5     6    1
    20     6     7    1
    21     7     8   ar
    22     8     9   ar
    23     9    10   ar
    24    10    13    1
    25    13    14    1
    26    14    15    1
    27    15    16   ar
    28    15    17   ar
    29    10    11   ar
    30    11    12   ar
    31    33    24   ar
    32    12     7   ar
    33    32    27   ar
    34    18    19    1
    35     3     4    1
@<TRIPOS>MOLECULE
*****
 33 35 0 0 0
SMALL
GASTEIGER

@<TRIPOS>ATOM
      1 C         141.3534  144.8514  161.6152 C.3     1  UNL1        0.1020
      2 C         140.1890  145.5336  162.2701 C.3     1  UNL1        0.1697
      3 O         140.0006  147.0133  162.1114 O.3     1  UNL1       -0.3793
      4 H         140.7133  147.3728  161.5603 H       1  UNL1        0.2106
      5 C         139.2132  144.7363  163.0837 C.3     1  UNL1        0.2358
      6 O         139.1776  143.2419  162.9591 O.3     1  UNL1       -0.4728
      7 C         139.2885  142.3843  164.1848 C.ar    1  UNL1        0.1387
      8 C         138.4519  141.1457  164.3118 C.ar    1  UNL1        0.0366
      9 C         138.5628  140.2882  165.5374 C.ar    1  UNL1       -0.0011
     10 C         139.5103  140.6692  166.6362 C.ar    1  UNL1       -0.0216
     11 C         140.3468  141.9078  166.5092 C.ar    1  UNL1       -0.0011
     12 C         140.2359  142.7653  165.2835 C.ar    1  UNL1        0.0366
     13 C         139.6211  139.8116  167.8619 C.3     1  UNL1        0.0323
     14 C         140.4410  140.2746  169.0295 C.3     1  UNL1        0.0464
     15 C         139.8314  140.3302  170.3990 C.2     1  UNL1        0.0507
     16 O         138.4642  139.7600  170.6351 O.co2   1  UNL1       -0.5492
     17 O         140.5889  140.9560  171.5323 O.co2   1  UNL1       -0.5492
     18 N         142.7426  145.0736  162.1357 N.3     1  UNL1       -0.2972
     19 H         143.2983  145.4193  161.3534 H       1  UNL1        0.1233
     20 C         143.7486  143.3692  161.3720 C.3     1  UNL1        0.0161
     21 C         143.5080  143.9342  162.7406 C.3     1  UNL1        0.0461
     22 C         143.2674  144.4991  164.1091 C.3     1  UNL1        0.0161
     23 C         144.2734  142.7948  163.3455 C.3     1  UNL1        0.0408
     24 C         143.5516  141.5545  163.7824 C.ar    1  UNL1       -0.0209
     25 C         143.8632  140.9346  165.1123 C.ar    1  UNL1       -0.0042
     26 C         143.1414  139.6944  165.5493 C.ar    1  UNL1       -0.0003
     27 C         142.1080  139.0741  164.6564 C.ar    1  UNL1       -0.0000
     28 C         141.3863  137.8339  165.0933 C.ar    1  UNL1       -0.0000
     29 C         140.3530  137.2135  164.2004 C.ar    1  UNL1       -0.0000
     30 C         140.0414  137.8334  162.8705 C.ar    1  UNL1       -0.0000
     31 C         140.7631  139.0736  162.4335 C.ar    1  UNL1       -0.0000
     32 C         141.7965  139.6939  163.3264 C.ar    1  UNL1       -0.0003
     33 C         142.5183  140.9342  162.8895 C.ar    1  UNL1       -0.0042
@<TRIPOS>UNITY_ATOM_ATTR
16 1
charge -1
@<TRIPOS>BOND
     1    20    21    1
     2    21    22    1
     3    21    23    1
     4    23    24    1
     5    24    25   ar
     6    25    26   ar
     7    26    27   ar
     8    27    28   ar
     9    28    29   ar
    10    29    30   ar
    11    30    31   ar
    12    31    32   ar
    13    32    33   ar
    14    21    18    1
    15    18     1    1
    16     1     2    1
    17     2     3    1
    18     2     5    1
    19     5     6    1
    20     6     7    1
    21     7     8   ar
    22     8     9   ar
    23     9    10   ar
    24    10    13    1
    25    13    14    1
    26    14    15    1
    27    15    16   ar
    28    15    17   ar
    29    10    11   ar
    30    11    12   ar
    31    33    24   ar
    32    12     7   ar
    33    32    27   ar
    34    18    19    1
    35     3     4    1
@<TRIPOS>MOLECULE
*****
 33 35 0 0 0
SMALL
GASTEIGER

@<TRIPOS>ATOM
      1 C         142.2225  137.8634  161.4635 C.3     1  UNL1        0.1020
      2 C         143.5719  138.4643  161.7241 C.3     1  UNL1        0.1697
      3 O         144.5525  138.6221  160.5999 O.3     1  UNL1       -0.3793
      4 H         144.1589  138.2886  159.7784 H       1  UNL1        0.2106
      5 C         143.9409  138.9073  163.1088 C.3     1  UNL1        0.2358
      6 O         144.0474  140.3698  163.4250 O.3     1  UNL1       -0.4728
      7 C         143.6565  140.8741  164.7825 C.ar    1  UNL1        0.1387
      8 C         143.9644  142.2888  165.1744 C.ar    1  UNL1        0.0366
      9 C         143.5734  142.7931  166.5319 C.ar    1  UNL1       -0.0011
     10 C         142.8746  141.8825  167.4976 C.ar    1  UNL1       -0.0216
     11 C         142.5667  140.4677  167.1057 C.ar    1  UNL1       -0.0011
     12 C         142.9577  139.9635  165.7482 C.ar    1  UNL1        0.0366
     13 C         142.4837  142.3868  168.8551 C.3     1  UNL1        0.0323
     14 C         141.2101  141.9155  169.4922 C.3     1  UNL1        0.0464
     15 C         140.5418  142.7530  170.5419 C.2     1  UNL1        0.0507
     16 O         140.0822  144.1424  170.2125 O.co2   1  UNL1       -0.5492
     17 O         140.3332  142.2013  171.9211 O.co2   1  UNL1       -0.5492
     18 N         141.5340  137.0722  162.5359 N.3     1  UNL1       -0.2972
     19 H         141.3642  136.1423  162.1527 H       1  UNL1        0.1233
     20 C         139.7791  137.9476  161.7273 C.3     1  UNL1        0.0161
     21 C         140.2304  137.5519  163.1019 C.3     1  UNL1        0.0461
     22 C         140.6816  137.1561  164.4766 C.3     1  UNL1        0.0161
     23 C         138.9267  138.0316  163.6680 C.3     1  UNL1        0.0408
     24 C         138.6535  139.5023  163.7799 C.ar    1  UNL1       -0.0209
     25 C         137.6300  140.1447  162.8912 C.ar    1  UNL1       -0.0042
     26 C         137.3568  141.6153  163.0031 C.ar    1  UNL1       -0.0003
     27 C         138.1071  142.4436  164.0037 C.ar    1  UNL1       -0.0000
     28 C         137.8339  143.9143  164.1155 C.ar    1  UNL1       -0.0000
     29 C         138.5842  144.7425  165.1160 C.ar    1  UNL1       -0.0000
     30 C         139.6077  144.1000  166.0047 C.ar    1  UNL1       -0.0000
     31 C         139.8809  142.6294  165.8928 C.ar    1  UNL1       -0.0000
     32 C         139.1306  141.8012  164.8923 C.ar    1  UNL1       -0.0003
     33 C         139.4038  140.3305  164.7804 C.ar    1  UNL1       -0.0042
@<TRIPOS>UNITY_ATOM_ATTR
16 1
charge -1
@<TRIPOS>BOND
     1    20    21    1
     2    21    22    1
     3    21    23    1
     4    23    24    1
     5    24    25   ar
     6    25    26   ar
     7    26    27   ar
     8    27    28   ar
     9    28    29   ar
    10    29    30   ar
    11    30    31   ar
    12    31    32   ar
    13    32    33   ar
    14    21    18    1
    15    18     1    1
    16     1     2    1
    17     2     3    1
    18     2     5    1
    19     5     6    1
    20     6     7    1
    21     7     8   ar
    22     8     9   ar
    23     9    10   ar
    24    10    13    1
    25    13    14    1
    26    14    15    1
    27    15    16   ar
    28    15    17   ar
    29    10    11   ar
    30    11    12   ar
    31    33    24   ar
    32    12     7   ar
    33    32    27   ar
    34    18    19    1
    35     3     4    1
@<TRIPOS>MOLECULE
*****
 33 35 0 0 0
SMALL
GASTEIGER

@<TRIPOS>ATOM
      1 C         138.8671  145.0269  163.1028 C.3     1  UNL1        0.1020
      2 C         137.9995  143.8179  162.9140 C.3     1  UNL1        0.1697
      3 O         137.5866  143.3993  161.5340 O.3     1  UNL1       -0.3793
      4 H         137.9631  144.0128  160.8837 H       1  UNL1        0.2106
      5 C         137.5447  143.0276  164.1050 C.3     1  UNL1        0.2358
      6 O         138.0971  141.6546  164.3494 O.3     1  UNL1       -0.4728
      7 C         139.0737  141.4268  165.4650 C.ar    1  UNL1        0.1387
      8 C         140.0108  142.5231  165.8771 C.ar    1  UNL1        0.0366
      9 C         140.9874  142.2952  166.9926 C.ar    1  UNL1       -0.0011
     10 C         141.0268  140.9709  167.6959 C.ar    1  UNL1       -0.0216
     11 C         140.0898  139.8746  167.2838 C.ar    1  UNL1       -0.0011
     12 C         139.1132  140.1025  166.1684 C.ar    1  UNL1        0.0366
     13 C         142.0035  140.7430  168.8115 C.3     1  UNL1        0.0323
     14 C         141.5959  139.9439  170.0136 C.3     1  UNL1        0.0464
     15 C         140.4624  140.4130  170.8770 C.2     1  UNL1        0.0507
     16 O         140.6858  141.5064  171.8792 O.co2   1  UNL1       -0.5492
     17 O         139.1056  139.7886  170.7381 O.co2   1  UNL1       -0.5492
     18 N         139.9044  145.3734  162.0762 N.3     1  UNL1       -0.2972
     19 H         139.5102  145.1333  161.1666 H       1  UNL1        0.1233
     20 C         141.1116  144.2730  160.7227 C.3     1  UNL1        0.0161
     21 C         141.2631  144.7411  162.1398 C.3     1  UNL1        0.0461
     22 C         141.4146  145.2091  163.5568 C.3     1  UNL1        0.0161
     23 C         142.6218  144.1088  162.2034 C.3     1  UNL1        0.0408
     24 C         142.8495  142.9061  163.0705 C.ar    1  UNL1       -0.0209
     25 C         143.8998  142.9412  164.1408 C.ar    1  UNL1       -0.0042
     26 C         144.1275  141.7386  165.0079 C.ar    1  UNL1       -0.0003
     27 C         143.3049  140.5008  164.8047 C.ar    1  UNL1       -0.0000
     28 C         143.5326  139.2982  165.6717 C.ar    1  UNL1       -0.0000
     29 C         142.7099  138.0605  165.4685 C.ar    1  UNL1       -0.0000
     30 C         141.6596  138.0254  164.3982 C.ar    1  UNL1       -0.0000
     31 C         141.4319  139.2280  163.5311 C.ar    1  UNL1       -0.0000
     32 C         142.2545  140.4657  163.7343 C.ar    1  UNL1       -0.0003
     33 C         142.0269  141.6684  162.8672 C.ar    1  UNL1       -0.0042
@<TRIPOS>UNITY_ATOM_ATTR
16 1
charge -1
@<TRIPOS>BOND
     1    20    21    1
     2    21    22    1
     3    21    23    1
     4    23    24    1
     5    24    25   ar
     6    25    26   ar
     7    26    27   ar
     8    27    28   ar
     9    28    29   ar
    10    29    30   ar
    11    30    31   ar
    12    31    32   ar
    13    32    33   ar
    14    21    18    1
    15    18     1    1
    16     1     2    1
    17     2     3    1
    18     2     5    1
    19     5     6    1
    20     6     7    1
    21     7     8   ar
    22     8     9   ar
    23     9    10   ar
    24    10    13    1
    25    13    14    1
    26    14    15    1
    27    15    16   ar
    28    15    17   ar
    29    10    11   ar
    30    11    12   ar
    31    33    24   ar
    32    12     7   ar
    33    32    27   ar
    34    18    19    1
    35     3     4    1
@<TRIPOS>MOLECULE
*****
 33 35 0 0 0
SMALL
GASTEIGER

@<TRIPOS>ATOM
      1 C         144.3482  144.0803  162.5791 C.3     1  UNL1        0.1020
      2 C         144.4982  142.6322  162.2177 C.3     1  UNL1        0.1697
      3 O         143.8971  142.1104  160.9463 O.3     1  UNL1       -0.3793
      4 H         143.4504  142.8337  160.4791 H       1  UNL1        0.2106
      5 C         145.2491  141.7060  163.1277 C.3     1  UNL1        0.2358
      6 O         144.5977  140.4482  163.6214 O.3     1  UNL1       -0.4728
      7 C         143.8271  140.4580  164.9083 C.ar    1  UNL1        0.1387
      8 C         143.4129  141.7613  165.5246 C.ar    1  UNL1        0.0366
      9 C         142.6423  141.7711  166.8114 C.ar    1  UNL1       -0.0011
     10 C         142.2859  140.4775  167.4820 C.ar    1  UNL1       -0.0216
     11 C         142.7001  139.1742  166.8658 C.ar    1  UNL1       -0.0011
     12 C         143.4707  139.1645  165.5789 C.ar    1  UNL1        0.0366
     13 C         141.5153  140.4873  168.7690 C.3     1  UNL1        0.0323
     14 C         140.0304  140.2753  168.7556 C.3     1  UNL1        0.0464
     15 C         139.2116  140.6279  169.9620 C.2     1  UNL1        0.0507
     16 O         138.1501  139.6867  170.4491 O.co2   1  UNL1       -0.5492
     17 O         139.4543  141.9217  170.6812 O.co2   1  UNL1       -0.5492
     18 N         143.1655  144.8584  162.0834 N.3     1  UNL1       -0.2972
     19 H         143.3377  145.8364  162.3164 H       1  UNL1        0.1233
     20 C         142.2531  144.7325  163.9943 C.3     1  UNL1        0.0161
     21 C         141.7894  144.5303  162.5822 C.3     1  UNL1        0.0461
     22 C         141.3257  144.3281  161.1700 C.3     1  UNL1        0.0161
     23 C         140.4133  144.2022  163.0810 C.3     1  UNL1        0.0408
     24 C         140.1341  142.8558  163.6804 C.ar    1  UNL1       -0.0209
     25 C         139.3231  142.7482  164.9376 C.ar    1  UNL1       -0.0042
     26 C         139.0438  141.4018  165.5371 C.ar    1  UNL1       -0.0003
     27 C         139.5756  140.1630  164.8793 C.ar    1  UNL1       -0.0000
     28 C         139.2964  138.8167  165.4787 C.ar    1  UNL1       -0.0000
     29 C         139.8282  137.5780  164.8209 C.ar    1  UNL1       -0.0000
     30 C         140.6392  137.6856  163.5637 C.ar    1  UNL1       -0.0000
     31 C         140.9185  139.0320  162.9642 C.ar    1  UNL1       -0.0000
     32 C         140.3867  140.2707  163.6220 C.ar    1  UNL1       -0.0003
     33 C         140.6659  141.6171  163.0226 C.ar    1  UNL1       -0.0042
@<TRIPOS>UNITY_ATOM_ATTR
16 1
charge -1
@<TRIPOS>BOND
     1    20    21    1
     2    21    22    1
     3    21    23    1
     4    23    24    1
     5    24    25   ar
     6    25    26   ar
     7    26    27   ar
     8    27    28   ar
     9    28    29   ar
    10    29    30   ar
    11    30    31   ar
    12    31    32   ar
    13    32    33   ar
    14    21    18    1
    15    18     1    1
    16     1     2    1
    17     2     3    1
    18     2     5    1
    19     5     6    1
    20     6     7    1
    21     7     8   ar
    22     8     9   ar
    23     9    10   ar
    24    10    13    1
    25    13    14    1
    26    14    15    1
    27    15    16   ar
    28    15    17   ar
    29    10    11   ar
    30    11    12   ar
    31    33    24   ar
    32    12     7   ar
    33    32    27   ar
    34    18    19    1
    35     3     4    1
@<TRIPOS>MOLECULE
*****
 33 35 0 0 0
SMALL
GASTEIGER

@<TRIPOS>ATOM
      1 C         141.4587  145.3497  162.3962 C.3     1  UNL1        0.1020
      2 C         142.7066  144.7636  162.9872 C.3     1  UNL1        0.1697
      3 O         143.7169  145.6571  163.6437 O.3     1  UNL1       -0.3793
      4 H         143.4117  146.5768  163.6003 H       1  UNL1        0.2106
      5 C         142.9442  143.2840  162.9215 C.3     1  UNL1        0.2358
      6 O         141.8216  142.3307  163.2063 O.3     1  UNL1       -0.4728
      7 C         141.6568  141.7555  164.5819 C.ar    1  UNL1        0.1387
      8 C         141.2651  142.6447  165.7246 C.ar    1  UNL1        0.0366
      9 C         141.1003  142.0695  167.1001 C.ar    1  UNL1       -0.0011
     10 C         141.3274  140.6052  167.3328 C.ar    1  UNL1       -0.0216
     11 C         141.7191  139.7160  166.1901 C.ar    1  UNL1       -0.0011
     12 C         141.8839  140.2912  164.8146 C.ar    1  UNL1        0.0366
     13 C         141.1626  140.0300  168.7084 C.3     1  UNL1        0.0323
     14 C         140.3924  140.7860  169.7501 C.3     1  UNL1        0.0464
     15 C         141.1209  141.6015  170.7769 C.2     1  UNL1        0.0507
     16 O         140.3987  142.0886  171.9981 O.co2   1  UNL1       -0.5492
     17 O         142.5715  141.9300  170.5825 O.co2   1  UNL1       -0.5492
     18 N         140.2573  145.5853  163.2631 N.3     1  UNL1       -0.2972
     19 H         140.5883  145.5986  164.2278 H       1  UNL1        0.1233
     20 C         138.8610  144.8495  164.6805 C.3     1  UNL1        0.0161
     21 C         139.0998  144.6324  163.2156 C.3     1  UNL1        0.0461
     22 C         139.3385  144.4154  161.7507 C.3     1  UNL1        0.0161
     23 C         137.9423  143.6796  163.1681 C.3     1  UNL1        0.0408
     24 C         138.1701  142.2117  163.3769 C.ar    1  UNL1       -0.0209
     25 C         138.6062  141.3498  162.2293 C.ar    1  UNL1       -0.0042
     26 C         138.8340  139.8820  162.4379 C.ar    1  UNL1       -0.0003
     27 C         138.6258  139.2760  163.7943 C.ar    1  UNL1       -0.0000
     28 C         138.8537  137.8082  164.0029 C.ar    1  UNL1       -0.0000
     29 C         138.6455  137.2023  165.3592 C.ar    1  UNL1       -0.0000
     30 C         138.2095  138.0643  166.5068 C.ar    1  UNL1       -0.0000
     31 C         137.9816  139.5321  166.2981 C.ar    1  UNL1       -0.0000
     32 C         138.1898  140.1379  164.9419 C.ar    1  UNL1       -0.0003
     33 C         137.9619  141.6058  164.7331 C.ar    1  UNL1       -0.0042
@<TRIPOS>UNITY_ATOM_ATTR
16 1
charge -1
@<TRIPOS>BOND
     1    20    21    1
     2    21    22    1
     3    21    23    1
     4    23    24    1
     5    24    25   ar
     6    25    26   ar
     7    26    27   ar
     8    27    28   ar
     9    28    29   ar
    10    29    30   ar
    11    30    31   ar
    12    31    32   ar
    13    32    33   ar
    14    21    18    1
    15    18     1    1
    16     1     2    1
    17     2     3    1
    18     2     5    1
    19     5     6    1
    20     6     7    1
    21     7     8   ar
    22     8     9   ar
    23     9    10   ar
    24    10    13    1
    25    13    14    1
    26    14    15    1
    27    15    16   ar
    28    15    17   ar
    29    10    11   ar
    30    11    12   ar
    31    33    24   ar
    32    12     7   ar
    33    32    27   ar
    34    18    19    1
    35     3     4    1
