@<TRIPOS>MOLECULE
*****
 38 43 0 0 0
SMALL
GASTEIGER

@<TRIPOS>ATOM
      1 C         141.7176  144.5261  157.9805 C.3     1  UNL1        0.0824
      2 S         140.7216  143.4280  157.7518 S.3     1  UNL1       -0.0742
      3 C         140.5653  140.2530  159.9790 C.ar    1  UNL1        0.1669
      4 N         141.7063  139.9115  159.0671 N.ar    1  UNL1       -0.1282
      5 N         141.9037  141.0592  158.1218 N.ar    1  UNL1       -0.1221
      6 C         140.8848  142.1102  158.4494 C.ar    1  UNL1        0.1933
      7 N         140.0576  141.6119  159.5973 N.ar    1  UNL1       -0.2884
      8 C         138.9221  142.3439  160.2489 C.3     1  UNL1        0.1340
      9 C         143.2895  138.4470  166.0261 C.3     1  UNL1        0.0521
     10 C         142.4738  138.6822  164.7894 C.ar    1  UNL1        0.0593
     11 C         143.0125  139.5476  163.6890 C.ar    1  UNL1        0.0147
     12 C         142.1967  139.7827  162.4523 C.ar    1  UNL1        0.0028
     13 C         140.8423  139.1525  162.3161 C.ar    1  UNL1        0.0206
     14 C         140.0267  139.3876  161.0795 C.ar    1  UNL1        0.0374
     15 C         138.6723  138.7575  160.9432 C.ar    1  UNL1        0.0031
     16 C         138.1337  137.8921  162.0437 C.ar    1  UNL1        0.0016
     17 C         138.9494  137.6569  163.2804 C.ar    1  UNL1        0.0191
     18 C         140.3037  138.2872  163.4166 C.ar    1  UNL1        0.0810
     19 N         141.1194  138.0520  164.6532 N.ar    1  UNL1       -0.2497
     20 C         141.4906  145.5290  159.0726 C.3     1  UNL1        0.0843
     21 N         141.2330  145.0648  160.4755 N.3     1  UNL1       -0.2713
     22 C         140.0584  145.6946  161.1639 C.3     1  UNL1        0.0768
     23 C         139.5447  145.4473  162.5514 C.3     1  UNL1        0.0433
     24 C         140.0787  144.5094  163.5930 C.ar    1  UNL1       -0.0247
     25 C         139.2658  144.5686  164.8523 C.ar    1  UNL1       -0.0045
     26 C         139.6324  143.7055  166.0230 C.ar    1  UNL1        0.0011
     27 C         140.8120  142.7831  165.9346 C.ar    1  UNL1        0.0170
     28 C         141.6249  142.7239  164.6753 C.ar    1  UNL1       -0.0030
     29 C         141.2583  143.5870  163.5046 C.ar    1  UNL1       -0.0246
     30 C         142.1952  143.3747  162.3525 C.3     1  UNL1        0.0433
     31 C         142.1838  144.0325  161.0045 C.3     1  UNL1        0.0768
     32 C         141.1786  141.9200  167.1053 C.ar    1  UNL1        0.0791
     33 C         142.3108  142.1622  168.0589 C.ar    1  UNL1        0.0352
     34 C         142.3093  141.0550  169.0709 C.ar    1  UNL1        0.0804
     35 C         143.2720  140.9013  170.2109 C.3     1  UNL1        0.0540
     36 N         141.1762  140.1285  168.7427 N.ar    1  UNL1       -0.1736
     37 N         140.4773  140.6631  167.5279 N.ar    1  UNL1       -0.2492
     38 C         139.2864  140.0487  166.8540 C.3     1  UNL1        0.1537
@<TRIPOS>BOND
     1     9    10    1
     2    10    11   ar
     3    11    12   ar
     4    12    13   ar
     5    13    14   ar
     6    14     3    1
     7     3     4   ar
     8     4     5   ar
     9     5     6   ar
    10     6     2    1
    11     2     1    1
    12     1    20    1
    13    20    21    1
    14    21    22    1
    15    22    23    1
    16    23    24    1
    17    24    25   ar
    18    25    26   ar
    19    26    27   ar
    20    27    32    1
    21    32    33   ar
    22    33    34   ar
    23    34    35    1
    24    34    36   ar
    25    36    37   ar
    26    37    38    1
    27    27    28   ar
    28    28    29   ar
    29    29    30    1
    30    30    31    1
    31     6     7   ar
    32     7     8    1
    33    14    15   ar
    34    15    16   ar
    35    16    17   ar
    36    17    18   ar
    37    18    19   ar
    38    19    10   ar
    39    18    13   ar
    40     7     3   ar
    41    31    21    1
    42    29    24   ar
    43    37    32   ar
@<TRIPOS>MOLECULE
*****
 38 43 0 0 0
SMALL
GASTEIGER

@<TRIPOS>ATOM
      1 C         140.3737  145.2000  158.5964 C.3     1  UNL1        0.0824
      2 S         139.9369  143.8212  158.1982 S.3     1  UNL1       -0.0742
      3 C         139.6268  140.9892  160.8343 C.ar    1  UNL1        0.1669
      4 N         138.2577  141.5983  160.9008 N.ar    1  UNL1       -0.1282
      5 N         138.2072  142.7333  159.9215 N.ar    1  UNL1       -0.1221
      6 C         139.5451  142.8257  159.2496 C.ar    1  UNL1        0.1933
      7 N         140.4226  141.7478  159.8138 N.ar    1  UNL1       -0.2884
      8 C         141.8457  141.4762  159.4256 C.3     1  UNL1        0.1340
      9 C         138.3243  139.1758  167.3354 C.3     1  UNL1        0.0521
     10 C         138.7719  139.3383  165.9130 C.ar    1  UNL1        0.0593
     11 C         138.2841  140.5017  165.1015 C.ar    1  UNL1        0.0147
     12 C         138.7317  140.6642  163.6790 C.ar    1  UNL1        0.0028
     13 C         139.6671  139.6633  163.0681 C.ar    1  UNL1        0.0206
     14 C         140.1147  139.8258  161.6458 C.ar    1  UNL1        0.0374
     15 C         141.0501  138.8249  161.0348 C.ar    1  UNL1        0.0031
     16 C         141.5379  137.6616  161.8463 C.ar    1  UNL1        0.0016
     17 C         141.0903  137.4990  163.2687 C.ar    1  UNL1        0.0191
     18 C         140.1549  138.4999  163.8797 C.ar    1  UNL1        0.0810
     19 N         139.7073  138.3374  165.3021 N.ar    1  UNL1       -0.2497
     20 C         141.4223  145.3783  159.6541 C.3     1  UNL1        0.0843
     21 N         141.1505  144.9366  161.0616 N.3     1  UNL1       -0.2713
     22 C         139.8821  145.4543  161.6726 C.3     1  UNL1        0.0768
     23 C         139.3330  145.1989  163.0450 C.3     1  UNL1        0.0433
     24 C         139.9165  144.3629  164.1451 C.ar    1  UNL1       -0.0247
     25 C         139.0427  144.3740  165.3643 C.ar    1  UNL1       -0.0045
     26 C         139.4457  143.5980  166.5830 C.ar    1  UNL1        0.0011
     27 C         140.7226  142.8108  166.5827 C.ar    1  UNL1        0.0170
     28 C         141.5964  142.7996  165.3635 C.ar    1  UNL1       -0.0030
     29 C         141.1934  143.5757  164.1448 C.ar    1  UNL1       -0.0246
     30 C         142.2020  143.4301  163.0441 C.3     1  UNL1        0.0433
     31 C         142.1828  144.0358  161.6720 C.3     1  UNL1        0.0768
     32 C         141.1256  142.0347  167.8014 C.ar    1  UNL1        0.0791
     33 C         141.7185  140.6570  167.8132 C.ar    1  UNL1        0.0352
     34 C         141.9658  140.2710  169.2414 C.ar    1  UNL1        0.0804
     35 C         142.5505  138.9735  169.7155 C.3     1  UNL1        0.0540
     36 N         141.5257  141.4102  170.1124 N.ar    1  UNL1       -0.1736
     37 N         141.0064  142.5003  169.2224 N.ar    1  UNL1       -0.2492
     38 C         140.4633  143.8235  169.6741 C.3     1  UNL1        0.1537
@<TRIPOS>BOND
     1     9    10    1
     2    10    11   ar
     3    11    12   ar
     4    12    13   ar
     5    13    14   ar
     6    14     3    1
     7     3     4   ar
     8     4     5   ar
     9     5     6   ar
    10     6     2    1
    11     2     1    1
    12     1    20    1
    13    20    21    1
    14    21    22    1
    15    22    23    1
    16    23    24    1
    17    24    25   ar
    18    25    26   ar
    19    26    27   ar
    20    27    32    1
    21    32    33   ar
    22    33    34   ar
    23    34    35    1
    24    34    36   ar
    25    36    37   ar
    26    37    38    1
    27    27    28   ar
    28    28    29   ar
    29    29    30    1
    30    30    31    1
    31     6     7   ar
    32     7     8    1
    33    14    15   ar
    34    15    16   ar
    35    16    17   ar
    36    17    18   ar
    37    18    19   ar
    38    19    10   ar
    39    18    13   ar
    40     7     3   ar
    41    31    21    1
    42    29    24   ar
    43    37    32   ar
@<TRIPOS>MOLECULE
*****
 38 43 0 0 0
SMALL
GASTEIGER

@<TRIPOS>ATOM
      1 C         140.3875  145.5748  159.5191 C.3     1  UNL1        0.0824
      2 S         139.9993  144.3005  158.8294 S.3     1  UNL1       -0.0742
      3 C         140.4832  140.8990  160.6352 C.ar    1  UNL1        0.1669
      4 N         141.7628  140.9997  159.8591 N.ar    1  UNL1       -0.1282
      5 N         141.7373  142.2862  159.0881 N.ar    1  UNL1       -0.1221
      6 C         140.4419  142.9806  159.3878 C.ar    1  UNL1        0.1933
      7 N         139.6668  142.1232  160.3440 N.ar    1  UNL1       -0.2884
      8 C         138.3131  142.4353  160.9096 C.3     1  UNL1        0.1340
      9 C         143.6606  138.2035  166.1022 C.3     1  UNL1        0.0521
     10 C         142.7678  138.5956  164.9625 C.ar    1  UNL1        0.0593
     11 C         143.1618  139.7227  164.0545 C.ar    1  UNL1        0.0147
     12 C         142.2689  140.1148  162.9147 C.ar    1  UNL1        0.0028
     13 C         140.9820  139.3798  162.6829 C.ar    1  UNL1        0.0206
     14 C         140.0891  139.7719  161.5433 C.ar    1  UNL1        0.0374
     15 C         138.8022  139.0370  161.3114 C.ar    1  UNL1        0.0031
     16 C         138.4082  137.9100  162.2195 C.ar    1  UNL1        0.0016
     17 C         139.3011  137.5179  163.3592 C.ar    1  UNL1        0.0191
     18 C         140.5880  138.2528  163.5910 C.ar    1  UNL1        0.0810
     19 N         141.4808  137.8607  164.7307 N.ar    1  UNL1       -0.2497
     20 C         139.9108  145.8474  160.9149 C.3     1  UNL1        0.0843
     21 N         140.5436  145.1383  162.0755 N.3     1  UNL1       -0.2713
     22 C         142.0431  145.0965  162.0735 C.3     1  UNL1        0.0768
     23 C         142.9625  144.4709  163.0801 C.3     1  UNL1        0.0433
     24 C         142.6097  143.7326  164.3372 C.ar    1  UNL1       -0.0247
     25 C         143.8375  143.2661  165.0617 C.ar    1  UNL1       -0.0045
     26 C         143.7057  142.5045  166.3473 C.ar    1  UNL1        0.0011
     27 C         142.3463  142.2094  166.9084 C.ar    1  UNL1        0.0170
     28 C         141.1185  142.6759  166.1838 C.ar    1  UNL1       -0.0030
     29 C         141.2502  143.4375  164.8983 C.ar    1  UNL1       -0.0246
     30 C         139.9078  143.8079  164.3407 C.3     1  UNL1        0.0433
     31 C         139.5934  144.5649  163.0844 C.3     1  UNL1        0.0768
     32 C         142.2146  141.4478  168.1939 C.ar    1  UNL1        0.0791
     33 C         142.6742  140.0407  168.4361 C.ar    1  UNL1        0.0352
     34 C         142.3438  139.6829  169.8549 C.ar    1  UNL1        0.0804
     35 C         142.6275  138.3696  170.5219 C.3     1  UNL1        0.0540
     36 N         141.6799  140.8689  170.4894 N.ar    1  UNL1       -0.1736
     37 N         141.6000  141.9597  169.4629 N.ar    1  UNL1       -0.2492
     38 C         141.0094  143.3230  169.6692 C.3     1  UNL1        0.1537
@<TRIPOS>BOND
     1     9    10    1
     2    10    11   ar
     3    11    12   ar
     4    12    13   ar
     5    13    14   ar
     6    14     3    1
     7     3     4   ar
     8     4     5   ar
     9     5     6   ar
    10     6     2    1
    11     2     1    1
    12     1    20    1
    13    20    21    1
    14    21    22    1
    15    22    23    1
    16    23    24    1
    17    24    25   ar
    18    25    26   ar
    19    26    27   ar
    20    27    32    1
    21    32    33   ar
    22    33    34   ar
    23    34    35    1
    24    34    36   ar
    25    36    37   ar
    26    37    38    1
    27    27    28   ar
    28    28    29   ar
    29    29    30    1
    30    30    31    1
    31     6     7   ar
    32     7     8    1
    33    14    15   ar
    34    15    16   ar
    35    16    17   ar
    36    17    18   ar
    37    18    19   ar
    38    19    10   ar
    39    18    13   ar
    40     7     3   ar
    41    31    21    1
    42    29    24   ar
    43    37    32   ar
@<TRIPOS>MOLECULE
*****
 38 43 0 0 0
SMALL
GASTEIGER

@<TRIPOS>ATOM
      1 C         139.3347  141.7508  157.2167 C.3     1  UNL1        0.0824
      2 S         140.2568  142.8441  157.6694 S.3     1  UNL1       -0.0742
      3 C         142.5330  142.6590  160.8078 C.ar    1  UNL1        0.1669
      4 N         143.1801  141.6379  159.9198 N.ar    1  UNL1       -0.1282
      5 N         142.4062  141.5828  158.6361 N.ar    1  UNL1       -0.1221
      6 C         141.2808  142.5700  158.7306 C.ar    1  UNL1        0.1933
      7 N         141.3591  143.2351  160.0729 N.ar    1  UNL1       -0.2884
      8 C         140.4273  144.2910  160.5894 C.3     1  UNL1        0.1340
      9 C         142.9929  138.9370  166.5685 C.3     1  UNL1        0.0521
     10 C         142.9899  139.9621  165.4734 C.ar    1  UNL1        0.0593
     11 C         142.5419  139.5835  164.0928 C.ar    1  UNL1        0.0147
     12 C         142.5389  140.6088  162.9978 C.ar    1  UNL1        0.0028
     13 C         142.9840  142.0125  163.2834 C.ar    1  UNL1        0.0206
     14 C         142.9811  143.0376  162.1884 C.ar    1  UNL1        0.0374
     15 C         143.4262  144.4413  162.4739 C.ar    1  UNL1        0.0031
     16 C         143.8742  144.8198  163.8545 C.ar    1  UNL1        0.0016
     17 C         143.8772  143.7947  164.9495 C.ar    1  UNL1        0.0191
     18 C         143.4321  142.3909  164.6639 C.ar    1  UNL1        0.0810
     19 N         143.4350  141.3658  165.7590 N.ar    1  UNL1       -0.2497
     20 C         138.1527  141.3703  158.0581 C.3     1  UNL1        0.0843
     21 N         138.3591  140.8489  159.4494 N.3     1  UNL1       -0.2713
     22 C         138.7624  139.4077  159.5510 C.3     1  UNL1        0.0768
     23 C         139.0411  138.5992  160.7835 C.3     1  UNL1        0.0433
     24 C         138.9854  139.0323  162.2184 C.ar    1  UNL1       -0.0247
     25 C         139.3383  137.9064  163.1447 C.ar    1  UNL1       -0.0045
     26 C         139.3430  138.1291  164.6281 C.ar    1  UNL1        0.0011
     27 C         138.9948  139.4775  165.1853 C.ar    1  UNL1        0.0170
     28 C         138.6420  140.6034  164.2589 C.ar    1  UNL1       -0.0030
     29 C         138.6373  140.3808  162.7756 C.ar    1  UNL1       -0.0246
     30 C         138.2588  141.6292  162.0352 C.3     1  UNL1        0.0433
     31 C         138.1351  141.8375  160.5549 C.3     1  UNL1        0.0768
     32 C         138.9995  139.7002  166.6686 C.ar    1  UNL1        0.0791
     33 C         139.8634  140.6761  167.4110 C.ar    1  UNL1        0.0352
     34 C         139.5389  140.5651  168.8712 C.ar    1  UNL1        0.0804
     35 C         140.1684  141.3592  169.9771 C.3     1  UNL1        0.0540
     36 N         138.4745  139.5204  169.0314 N.ar    1  UNL1       -0.1736
     37 N         138.1410  138.9859  167.6701 N.ar    1  UNL1       -0.2492
     38 C         137.1272  137.9236  167.3640 C.3     1  UNL1        0.1537
@<TRIPOS>BOND
     1     9    10    1
     2    10    11   ar
     3    11    12   ar
     4    12    13   ar
     5    13    14   ar
     6    14     3    1
     7     3     4   ar
     8     4     5   ar
     9     5     6   ar
    10     6     2    1
    11     2     1    1
    12     1    20    1
    13    20    21    1
    14    21    22    1
    15    22    23    1
    16    23    24    1
    17    24    25   ar
    18    25    26   ar
    19    26    27   ar
    20    27    32    1
    21    32    33   ar
    22    33    34   ar
    23    34    35    1
    24    34    36   ar
    25    36    37   ar
    26    37    38    1
    27    27    28   ar
    28    28    29   ar
    29    29    30    1
    30    30    31    1
    31     6     7   ar
    32     7     8    1
    33    14    15   ar
    34    15    16   ar
    35    16    17   ar
    36    17    18   ar
    37    18    19   ar
    38    19    10   ar
    39    18    13   ar
    40     7     3   ar
    41    31    21    1
    42    29    24   ar
    43    37    32   ar
@<TRIPOS>MOLECULE
*****
 38 43 0 0 0
SMALL
GASTEIGER

@<TRIPOS>ATOM
      1 C         142.9186  137.2739  159.6663 C.3     1  UNL1        0.0824
      2 S         142.5972  138.3226  158.6430 S.3     1  UNL1       -0.0742
      3 C         140.5752  141.5146  159.5305 C.ar    1  UNL1        0.1669
      4 N         139.4710  140.5224  159.3156 N.ar    1  UNL1       -0.1282
      5 N         140.0940  139.2059  158.9570 N.ar    1  UNL1       -0.1221
      6 C         141.5833  139.3844  158.9502 C.ar    1  UNL1        0.1933
      7 N         141.8807  140.8113  159.3047 N.ar    1  UNL1       -0.2884
      8 C         143.2442  141.4268  159.4141 C.3     1  UNL1        0.1340
      9 C         138.9293  144.4402  165.5290 C.3     1  UNL1        0.0521
     10 C         139.2980  144.0693  164.1231 C.ar    1  UNL1        0.0593
     11 C         139.4691  142.6270  163.7482 C.ar    1  UNL1        0.0147
     12 C         139.8378  142.2562  162.3422 C.ar    1  UNL1        0.0028
     13 C         140.0353  143.3277  161.3112 C.ar    1  UNL1        0.0206
     14 C         140.4040  142.9569  159.9054 C.ar    1  UNL1        0.0374
     15 C         140.6015  144.0283  158.8743 C.ar    1  UNL1        0.0031
     16 C         140.4303  145.4706  159.2492 C.ar    1  UNL1        0.0016
     17 C         140.0617  145.8414  160.6551 C.ar    1  UNL1        0.0191
     18 C         139.8642  144.7699  161.6861 C.ar    1  UNL1        0.0810
     19 N         139.4955  145.1408  163.0920 N.ar    1  UNL1       -0.2497
     20 C         143.6860  137.6416  160.9015 C.3     1  UNL1        0.0843
     21 N         142.9624  138.1694  162.1048 N.3     1  UNL1       -0.2713
     22 C         141.5387  137.7218  162.2562 C.3     1  UNL1        0.0768
     23 C         140.5591  138.0694  163.3378 C.3     1  UNL1        0.0433
     24 C         140.7613  138.9502  164.5348 C.ar    1  UNL1       -0.0247
     25 C         139.5187  139.0318  165.3712 C.ar    1  UNL1       -0.0045
     26 C         139.5078  139.8644  166.6189 C.ar    1  UNL1        0.0011
     27 C         140.7394  140.6154  167.0303 C.ar    1  UNL1        0.0170
     28 C         141.9820  140.5337  166.1939 C.ar    1  UNL1       -0.0030
     29 C         141.9929  139.7011  164.9462 C.ar    1  UNL1       -0.0246
     30 C         143.3266  139.7567  164.2620 C.3     1  UNL1        0.0433
     31 C         143.7580  139.0750  162.9974 C.3     1  UNL1        0.0768
     32 C         140.7286  141.4479  168.2779 C.ar    1  UNL1        0.0791
     33 C         140.3983  142.9088  168.3602 C.ar    1  UNL1        0.0352
     34 C         140.5116  143.3295  169.7955 C.ar    1  UNL1        0.0804
     35 C         140.2675  144.7089  170.3318 C.3     1  UNL1        0.0540
     36 N         140.9120  142.1287  170.6003 N.ar    1  UNL1       -0.1736
     37 N         141.0461  140.9658  169.6625 N.ar    1  UNL1       -0.2492
     38 C         141.4302  139.5664  170.0423 C.3     1  UNL1        0.1537
@<TRIPOS>BOND
     1     9    10    1
     2    10    11   ar
     3    11    12   ar
     4    12    13   ar
     5    13    14   ar
     6    14     3    1
     7     3     4   ar
     8     4     5   ar
     9     5     6   ar
    10     6     2    1
    11     2     1    1
    12     1    20    1
    13    20    21    1
    14    21    22    1
    15    22    23    1
    16    23    24    1
    17    24    25   ar
    18    25    26   ar
    19    26    27   ar
    20    27    32    1
    21    32    33   ar
    22    33    34   ar
    23    34    35    1
    24    34    36   ar
    25    36    37   ar
    26    37    38    1
    27    27    28   ar
    28    28    29   ar
    29    29    30    1
    30    30    31    1
    31     6     7   ar
    32     7     8    1
    33    14    15   ar
    34    15    16   ar
    35    16    17   ar
    36    17    18   ar
    37    18    19   ar
    38    19    10   ar
    39    18    13   ar
    40     7     3   ar
    41    31    21    1
    42    29    24   ar
    43    37    32   ar
@<TRIPOS>MOLECULE
*****
 38 43 0 0 0
SMALL
GASTEIGER

@<TRIPOS>ATOM
      1 C         142.9716  138.6154  157.9949 C.3     1  UNL1        0.0824
      2 S         143.8682  139.7706  158.3294 S.3     1  UNL1       -0.0742
      3 C         142.7502  142.7841  160.5053 C.ar    1  UNL1        0.1669
      4 N         142.0582  143.0893  159.2100 N.ar    1  UNL1       -0.1282
      5 N         142.3927  141.9976  158.2372 N.ar    1  UNL1       -0.1221
      6 C         143.2915  141.0176  158.9313 C.ar    1  UNL1        0.1933
      7 N         143.5125  141.5037  160.3331 N.ar    1  UNL1       -0.2884
      8 C         144.3489  140.8281  161.3790 C.3     1  UNL1        0.1340
      9 C         137.5035  144.2190  164.7080 C.3     1  UNL1        0.0521
     10 C         138.8002  144.0676  163.9694 C.ar    1  UNL1        0.0593
     11 C         138.8599  143.2381  162.7210 C.ar    1  UNL1        0.0147
     12 C         140.1568  143.0868  161.9824 C.ar    1  UNL1        0.0028
     13 C         141.3938  143.7649  162.4922 C.ar    1  UNL1        0.0206
     14 C         142.6905  143.6136  161.7537 C.ar    1  UNL1        0.0374
     15 C         143.9276  144.2916  162.2634 C.ar    1  UNL1        0.0031
     16 C         143.8678  145.1211  163.5118 C.ar    1  UNL1        0.0016
     17 C         142.5711  145.2725  164.2504 C.ar    1  UNL1        0.0191
     18 C         141.3340  144.5943  163.7406 C.ar    1  UNL1        0.0810
     19 N         140.0373  144.7457  164.4792 N.ar    1  UNL1       -0.2497
     20 C         142.5959  137.6255  159.0574 C.3     1  UNL1        0.0843
     21 N         141.8100  138.0722  160.2545 N.3     1  UNL1       -0.2713
     22 C         140.4439  138.6217  159.9681 C.3     1  UNL1        0.0768
     23 C         139.4246  139.1450  160.9362 C.3     1  UNL1        0.0433
     24 C         139.5196  139.2481  162.4295 C.ar    1  UNL1       -0.0247
     25 C         138.2701  139.8323  163.0191 C.ar    1  UNL1       -0.0045
     26 C         138.1583  140.0218  164.5029 C.ar    1  UNL1        0.0011
     27 C         139.2961  139.6270  165.3972 C.ar    1  UNL1        0.0170
     28 C         140.5456  139.0428  164.8076 C.ar    1  UNL1       -0.0030
     29 C         140.6573  138.8533  163.3239 C.ar    1  UNL1       -0.0246
     30 C         141.9811  138.2580  162.9455 C.3     1  UNL1        0.0433
     31 C         142.4940  137.9103  161.5795 C.3     1  UNL1        0.0768
     32 C         139.1843  139.8165  166.8810 C.ar    1  UNL1        0.0791
     33 C         140.0038  140.7570  167.7139 C.ar    1  UNL1        0.0352
     34 C         139.5595  140.6205  169.1400 C.ar    1  UNL1        0.0804
     35 C         140.1122  141.3762  170.3119 C.3     1  UNL1        0.0540
     36 N         138.4653  139.5955  169.1885 N.ar    1  UNL1       -0.1736
     37 N         138.2335  139.0986  167.7923 N.ar    1  UNL1       -0.2492
     38 C         137.2274  138.0653  167.3800 C.3     1  UNL1        0.1537
@<TRIPOS>BOND
     1     9    10    1
     2    10    11   ar
     3    11    12   ar
     4    12    13   ar
     5    13    14   ar
     6    14     3    1
     7     3     4   ar
     8     4     5   ar
     9     5     6   ar
    10     6     2    1
    11     2     1    1
    12     1    20    1
    13    20    21    1
    14    21    22    1
    15    22    23    1
    16    23    24    1
    17    24    25   ar
    18    25    26   ar
    19    26    27   ar
    20    27    32    1
    21    32    33   ar
    22    33    34   ar
    23    34    35    1
    24    34    36   ar
    25    36    37   ar
    26    37    38    1
    27    27    28   ar
    28    28    29   ar
    29    29    30    1
    30    30    31    1
    31     6     7   ar
    32     7     8    1
    33    14    15   ar
    34    15    16   ar
    35    16    17   ar
    36    17    18   ar
    37    18    19   ar
    38    19    10   ar
    39    18    13   ar
    40     7     3   ar
    41    31    21    1
    42    29    24   ar
    43    37    32   ar
@<TRIPOS>MOLECULE
*****
 38 43 0 0 0
SMALL
GASTEIGER

@<TRIPOS>ATOM
      1 C         141.6368  139.1483  156.9328 C.3     1  UNL1        0.0824
      2 S         140.8956  140.4229  157.2089 S.3     1  UNL1       -0.0742
      3 C         138.6697  141.0093  160.3341 C.ar    1  UNL1        0.1669
      4 N         137.8218  140.0522  159.5498 N.ar    1  UNL1       -0.1282
      5 N         138.5524  139.7160  158.2837 N.ar    1  UNL1       -0.1221
      6 C         139.8519  140.4654  158.2854 C.ar    1  UNL1        0.1933
      7 N         139.9243  141.2647  159.5526 N.ar    1  UNL1       -0.2884
      8 C         141.0532  142.1618  159.9659 C.3     1  UNL1        0.1340
      9 C         138.3812  138.1835  166.5936 C.3     1  UNL1        0.0521
     10 C         138.3668  139.0391  165.3617 C.ar    1  UNL1        0.0593
     11 C         138.7128  138.4422  164.0298 C.ar    1  UNL1        0.0147
     12 C         138.6984  139.2980  162.7978 C.ar    1  UNL1        0.0028
     13 C         138.3381  140.7506  162.8979 C.ar    1  UNL1        0.0206
     14 C         138.3237  141.6063  161.6660 C.ar    1  UNL1        0.0374
     15 C         137.9633  143.0589  161.7660 C.ar    1  UNL1        0.0031
     16 C         137.6174  143.6558  163.0979 C.ar    1  UNL1        0.0016
     17 C         137.6317  142.8001  164.3298 C.ar    1  UNL1        0.0191
     18 C         137.9921  141.3475  164.2298 C.ar    1  UNL1        0.0810
     19 N         138.0065  140.4918  165.4617 N.ar    1  UNL1       -0.2497
     20 C         142.8505  138.7965  157.7408 C.3     1  UNL1        0.0843
     21 N         142.9623  139.2546  159.1647 N.3     1  UNL1       -0.2713
     22 C         143.9508  140.3540  159.4189 C.3     1  UNL1        0.0768
     23 C         144.2919  141.0231  160.7175 C.3     1  UNL1        0.0433
     24 C         143.7289  140.7581  162.0822 C.ar    1  UNL1       -0.0247
     25 C         144.3474  141.6547  163.1136 C.ar    1  UNL1       -0.0045
     26 C         143.9226  141.5517  164.5486 C.ar    1  UNL1        0.0011
     27 C         142.8794  140.5523  164.9522 C.ar    1  UNL1        0.0170
     28 C         142.2610  139.6557  163.9207 C.ar    1  UNL1       -0.0030
     29 C         142.6857  139.7586  162.4858 C.ar    1  UNL1       -0.0246
     30 C         141.9479  138.7772  161.6241 C.3     1  UNL1        0.0433
     31 C         142.0711  138.5530  160.1461 C.3     1  UNL1        0.0768
     32 C         142.4547  140.4493  166.3871 C.ar    1  UNL1        0.0791
     33 C         142.9235  139.4215  167.3738 C.ar    1  UNL1        0.0352
     34 C         142.2451  139.6931  168.6837 C.ar    1  UNL1        0.0804
     35 C         142.4236  138.9069  169.9487 C.3     1  UNL1        0.0540
     36 N         141.3570  140.8888  168.5066 N.ar    1  UNL1       -0.1736
     37 N         141.4865  141.3562  167.0872 N.ar    1  UNL1       -0.2492
     38 C         140.7730  142.5253  166.4753 C.3     1  UNL1        0.1537
@<TRIPOS>BOND
     1     9    10    1
     2    10    11   ar
     3    11    12   ar
     4    12    13   ar
     5    13    14   ar
     6    14     3    1
     7     3     4   ar
     8     4     5   ar
     9     5     6   ar
    10     6     2    1
    11     2     1    1
    12     1    20    1
    13    20    21    1
    14    21    22    1
    15    22    23    1
    16    23    24    1
    17    24    25   ar
    18    25    26   ar
    19    26    27   ar
    20    27    32    1
    21    32    33   ar
    22    33    34   ar
    23    34    35    1
    24    34    36   ar
    25    36    37   ar
    26    37    38    1
    27    27    28   ar
    28    28    29   ar
    29    29    30    1
    30    30    31    1
    31     6     7   ar
    32     7     8    1
    33    14    15   ar
    34    15    16   ar
    35    16    17   ar
    36    17    18   ar
    37    18    19   ar
    38    19    10   ar
    39    18    13   ar
    40     7     3   ar
    41    31    21    1
    42    29    24   ar
    43    37    32   ar
@<TRIPOS>MOLECULE
*****
 38 43 0 0 0
SMALL
GASTEIGER

@<TRIPOS>ATOM
      1 C         139.3427  142.1329  157.1656 C.3     1  UNL1        0.0824
      2 S         140.8359  142.1287  157.3097 S.3     1  UNL1       -0.0742
      3 C         142.6522  143.0227  160.6213 C.ar    1  UNL1        0.1669
      4 N         142.2627  144.3845  160.1276 N.ar    1  UNL1       -0.1282
      5 N         141.5348  144.2154  158.8270 N.ar    1  UNL1       -0.1221
      6 C         141.4746  142.7491  158.5168 C.ar    1  UNL1        0.1933
      7 N         142.1652  142.0119  159.6257 N.ar    1  UNL1       -0.2884
      8 C         142.3383  140.5251  159.7222 C.3     1  UNL1        0.1340
      9 C         140.5971  143.1104  167.1801 C.3     1  UNL1        0.0521
     10 C         141.2973  143.0139  165.8571 C.ar    1  UNL1        0.0593
     11 C         140.5516  143.3125  164.5903 C.ar    1  UNL1        0.0147
     12 C         141.2519  143.2159  163.2673 C.ar    1  UNL1        0.0028
     13 C         142.6978  142.8207  163.2110 C.ar    1  UNL1        0.0206
     14 C         143.3980  142.7241  161.8881 C.ar    1  UNL1        0.0374
     15 C         144.8439  142.3289  161.8318 C.ar    1  UNL1        0.0031
     16 C         145.5895  142.0303  163.0986 C.ar    1  UNL1        0.0016
     17 C         144.8893  142.1269  164.4216 C.ar    1  UNL1        0.0191
     18 C         143.4434  142.5221  164.4779 C.ar    1  UNL1        0.0810
     19 N         142.7432  142.6186  165.8009 N.ar    1  UNL1       -0.2497
     20 C         138.5296  141.0171  157.7517 C.3     1  UNL1        0.0843
     21 N         138.8329  140.5125  159.1314 N.3     1  UNL1       -0.2713
     22 C         139.2152  139.0650  159.2255 C.3     1  UNL1        0.0768
     23 C         139.5729  138.2697  160.4460 C.3     1  UNL1        0.0433
     24 C         139.6366  138.7253  161.8736 C.ar    1  UNL1       -0.0247
     25 C         140.0384  137.6065  162.7885 C.ar    1  UNL1       -0.0045
     26 C         140.1620  137.8512  164.2632 C.ar    1  UNL1        0.0011
     27 C         139.8838  139.2147  164.8232 C.ar    1  UNL1        0.0170
     28 C         139.4820  140.3335  163.9083 C.ar    1  UNL1       -0.0030
     29 C         139.3584  140.0888  162.4336 C.ar    1  UNL1       -0.0246
     30 C         138.9478  141.3334  161.7040 C.3     1  UNL1        0.0433
     31 C         138.7139  141.5219  160.2344 C.3     1  UNL1        0.0768
     32 C         140.0074  139.4595  166.2979 C.ar    1  UNL1        0.0791
     33 C         138.8754  139.7246  167.2455 C.ar    1  UNL1        0.0352
     34 C         139.4531  139.9110  168.6172 C.ar    1  UNL1        0.0804
     35 C         138.6778  140.1972  169.8690 C.3     1  UNL1        0.0540
     36 N         140.9423  139.7611  168.5173 N.ar    1  UNL1       -0.1736
     37 N         141.2849  139.4820  167.0838 N.ar    1  UNL1       -0.2492
     38 C         142.6629  139.2638  166.5331 C.3     1  UNL1        0.1537
@<TRIPOS>BOND
     1     9    10    1
     2    10    11   ar
     3    11    12   ar
     4    12    13   ar
     5    13    14   ar
     6    14     3    1
     7     3     4   ar
     8     4     5   ar
     9     5     6   ar
    10     6     2    1
    11     2     1    1
    12     1    20    1
    13    20    21    1
    14    21    22    1
    15    22    23    1
    16    23    24    1
    17    24    25   ar
    18    25    26   ar
    19    26    27   ar
    20    27    32    1
    21    32    33   ar
    22    33    34   ar
    23    34    35    1
    24    34    36   ar
    25    36    37   ar
    26    37    38    1
    27    27    28   ar
    28    28    29   ar
    29    29    30    1
    30    30    31    1
    31     6     7   ar
    32     7     8    1
    33    14    15   ar
    34    15    16   ar
    35    16    17   ar
    36    17    18   ar
    37    18    19   ar
    38    19    10   ar
    39    18    13   ar
    40     7     3   ar
    41    31    21    1
    42    29    24   ar
    43    37    32   ar
@<TRIPOS>MOLECULE
*****
 38 43 0 0 0
SMALL
GASTEIGER

@<TRIPOS>ATOM
      1 C         141.4988  139.7418  156.5514 C.3     1  UNL1        0.0824
      2 S         141.5566  141.1876  156.1560 S.3     1  UNL1       -0.0742
      3 C         141.9367  143.7013  159.0889 C.ar    1  UNL1        0.1669
      4 N         143.2105  143.9417  158.3342 N.ar    1  UNL1       -0.1282
      5 N         143.2232  143.0294  157.1436 N.ar    1  UNL1       -0.1221
      6 C         141.9572  142.2250  157.1625 C.ar    1  UNL1        0.1933
      7 N         141.1621  142.6403  158.3648 N.ar    1  UNL1       -0.2884
      8 C         139.8268  142.0911  158.7715 C.3     1  UNL1        0.1340
      9 C         144.5801  143.5475  165.4323 C.3     1  UNL1        0.0521
     10 C         143.8131  143.7604  164.1609 C.ar    1  UNL1        0.0593
     11 C         144.2378  143.0624  162.9029 C.ar    1  UNL1        0.0147
     12 C         143.4707  143.2754  161.6315 C.ar    1  UNL1        0.0028
     13 C         142.2790  144.1863  161.6182 C.ar    1  UNL1        0.0206
     14 C         141.5120  144.3993  160.3469 C.ar    1  UNL1        0.0374
     15 C         140.3203  145.3102  160.3335 C.ar    1  UNL1        0.0031
     16 C         139.8958  146.0081  161.5915 C.ar    1  UNL1        0.0016
     17 C         140.6628  145.7951  162.8629 C.ar    1  UNL1        0.0191
     18 C         141.8544  144.8842  162.8762 C.ar    1  UNL1        0.0810
     19 N         142.6215  144.6713  164.1476 N.ar    1  UNL1       -0.2497
     20 C         142.3760  139.2307  157.6556 C.3     1  UNL1        0.0843
     21 N         141.8459  139.1454  159.0562 N.3     1  UNL1       -0.2713
     22 C         140.5531  138.4022  159.2186 C.3     1  UNL1        0.0768
     23 C         139.7737  138.1446  160.4742 C.3     1  UNL1        0.0433
     24 C         140.0947  138.5666  161.8772 C.ar    1  UNL1       -0.0247
     25 C         139.0458  138.1008  162.8431 C.ar    1  UNL1       -0.0045
     26 C         139.1765  138.4188  164.3032 C.ar    1  UNL1        0.0011
     27 C         140.3561  139.2026  164.7975 C.ar    1  UNL1        0.0170
     28 C         141.4050  139.6684  163.8316 C.ar    1  UNL1       -0.0030
     29 C         141.2743  139.3504  162.3715 C.ar    1  UNL1       -0.0246
     30 C         142.4243  139.9057  161.5846 C.3     1  UNL1        0.0433
     31 C         142.6786  139.8145  160.1091 C.3     1  UNL1        0.0768
     32 C         140.4868  139.5206  166.2575 C.ar    1  UNL1        0.0791
     33 C         139.3830  139.9847  167.1610 C.ar    1  UNL1        0.0352
     34 C         139.9583  140.1813  168.5323 C.ar    1  UNL1        0.0804
     35 C         139.2062  140.6399  169.7464 C.3     1  UNL1        0.0540
     36 N         141.4175  139.8387  168.4763 N.ar    1  UNL1       -0.1736
     37 N         141.7442  139.4304  167.0704 N.ar    1  UNL1       -0.2492
     38 C         143.0917  139.0063  166.5660 C.3     1  UNL1        0.1537
@<TRIPOS>BOND
     1     9    10    1
     2    10    11   ar
     3    11    12   ar
     4    12    13   ar
     5    13    14   ar
     6    14     3    1
     7     3     4   ar
     8     4     5   ar
     9     5     6   ar
    10     6     2    1
    11     2     1    1
    12     1    20    1
    13    20    21    1
    14    21    22    1
    15    22    23    1
    16    23    24    1
    17    24    25   ar
    18    25    26   ar
    19    26    27   ar
    20    27    32    1
    21    32    33   ar
    22    33    34   ar
    23    34    35    1
    24    34    36   ar
    25    36    37   ar
    26    37    38    1
    27    27    28   ar
    28    28    29   ar
    29    29    30    1
    30    30    31    1
    31     6     7   ar
    32     7     8    1
    33    14    15   ar
    34    15    16   ar
    35    16    17   ar
    36    17    18   ar
    37    18    19   ar
    38    19    10   ar
    39    18    13   ar
    40     7     3   ar
    41    31    21    1
    42    29    24   ar
    43    37    32   ar
