@<TRIPOS>MOLECULE
*****
 32 34 0 0 0
SMALL
GASTEIGER

@<TRIPOS>ATOM
      1 C         142.6000  142.9988  162.3454 C.ar    1  UNL1        0.1018
      2 C         141.8327  141.7632  162.7121 C.ar    1  UNL1        0.0239
      3 C         141.9869  141.1622  164.0777 C.ar    1  UNL1        0.0397
      4 C         142.9085  141.7968  165.0767 C.ar    1  UNL1        0.1518
      5 C         143.6758  143.0324  164.7101 C.ar    1  UNL1        0.0931
      6 C         144.5974  143.6670  165.7090 C.3     1  UNL1        0.0553
      7 N         143.5216  143.6334  163.3444 N.ar    1  UNL1       -0.2450
      8 C         141.3930  144.5839  160.5633 C.ar    1  UNL1        0.1218
      9 C         142.4458  143.5999  160.9798 C.ar    1  UNL1        0.1387
     10 N         143.3172  143.3224  159.7908 N.ar    1  UNL1       -0.1275
     11 N         142.8030  144.1350  158.6396 N.ar    1  UNL1       -0.0639
     12 N         141.6138  144.9147  159.1170 N.ar    1  UNL1       -0.2301
     13 C         140.7900  145.8592  158.2929 C.3     1  UNL1        0.1552
     14 C         140.3097  145.1397  161.4394 C.3     1  UNL1        0.2569
     15 O         138.9068  144.6234  161.3163 O.3     1  UNL1       -0.4278
     16 N         138.0088  142.9218  163.0621 N.am    1  UNL1       -0.2443
     17 C         137.6921  141.5094  163.4557 C.3     1  UNL1        0.1183
     18 C         138.5900  143.2111  161.7099 C.2     1  UNL1        0.4053
     19 O         138.8544  142.0881  160.7513 O.2     1  UNL1       -0.2262
     20 C         137.7445  144.0448  164.0208 C.3     1  UNL1        0.0968
     21 C         139.7025  143.6288  165.6770 C.3     1  UNL1        0.0018
     22 C         138.8544  144.5747  164.8795 C.3     1  UNL1        0.0216
     23 O         143.0627  141.1958  166.4424 O.3     1  UNL1       -0.4780
     24 C         141.8709  141.0665  167.3438 C.3     1  UNL1        0.1663
     25 C         140.8468  140.0014  167.0851 C.3     1  UNL1        0.0435
     26 C         139.6549  139.8721  167.9867 C.3     1  UNL1        0.0041
     27 C         139.4871  140.8079  169.1469 C.3     1  UNL1        0.0058
     28 C         140.5112  141.8730  169.4056 C.3     1  UNL1        0.0401
     29 C         141.7030  142.0023  168.5041 C.3     1  UNL1        0.0490
     30 C         140.3434  142.8087  170.5658 C.2     1  UNL1        0.0501
     31 O         140.0266  144.2547  170.3234 O.co2   1  UNL1       -0.5492
     32 O         140.4924  142.2985  171.9686 O.co2   1  UNL1       -0.5492
@<TRIPOS>UNITY_ATOM_ATTR
31 1
charge -1
@<TRIPOS>BOND
     1    21    22    1
     2    22    20    1
     3    20    16    1
     4    16    17    1
     5    16    18   am
     6    18    19    2
     7    18    15    1
     8    15    14    1
     9    14     8    1
    10     8     9   ar
    11     9     1    1
    12     1     2   ar
    13     2     3   ar
    14     3     4   ar
    15     4    23    1
    16    24    23    1
    17    24    25    1
    18    25    26    1
    19    26    27    1
    20    27    28    1
    21    28    30    1
    22    30    31   ar
    23    30    32   ar
    24    28    29    1
    25     4     5   ar
    26     5     6    1
    27     5     7   ar
    28     9    10   ar
    29    10    11   ar
    30    11    12   ar
    31    12    13    1
    32    12     8   ar
    33     7     1   ar
    34    29    24    1
@<TRIPOS>MOLECULE
*****
 32 34 0 0 0
SMALL
GASTEIGER

@<TRIPOS>ATOM
      1 C         142.0027  142.9048  162.3987 C.ar    1  UNL1        0.1018
      2 C         142.0124  143.8264  163.5820 C.ar    1  UNL1        0.0239
      3 C         142.2646  143.2802  164.9561 C.ar    1  UNL1        0.0397
      4 C         142.5071  141.8122  165.1467 C.ar    1  UNL1        0.1518
      5 C         142.4974  140.8906  163.9634 C.ar    1  UNL1        0.0931
      6 C         142.7399  139.4226  164.1540 C.3     1  UNL1        0.0553
      7 N         142.2452  141.4368  162.5894 N.ar    1  UNL1       -0.2450
      8 C         140.4793  143.3126  160.2404 C.ar    1  UNL1        0.1218
      9 C         141.7505  143.4510  161.0246 C.ar    1  UNL1        0.1387
     10 N         142.7252  144.2316  160.1935 N.ar    1  UNL1       -0.1275
     11 N         142.0564  144.5755  158.8957 N.ar    1  UNL1       -0.0639
     12 N         140.6683  144.0075  158.9246 N.ar    1  UNL1       -0.2301
     13 C         139.6484  144.1156  157.8300 C.3     1  UNL1        0.1552
     14 C         139.2372  142.6036  160.6926 C.3     1  UNL1        0.2569
     15 O         138.1482  143.3670  161.3862 O.3     1  UNL1       -0.4278
     16 N         138.3184  143.8695  163.9295 N.am    1  UNL1       -0.2443
     17 C         138.6569  144.8098  165.0480 C.3     1  UNL1        0.1183
     18 C         138.4867  144.3073  162.5047 C.2     1  UNL1        0.4053
     19 O         138.9935  145.6855  162.1986 O.2     1  UNL1       -0.2262
     20 C         137.8116  142.4913  164.2356 C.3     1  UNL1        0.0968
     21 C         138.2675  139.9681  164.6552 C.3     1  UNL1        0.0018
     22 C         138.7723  141.3432  164.3321 C.3     1  UNL1        0.0216
     23 O         142.7593  141.2660  166.5208 O.3     1  UNL1       -0.4780
     24 C         141.6191  141.0923  167.4798 C.3     1  UNL1        0.1663
     25 C         140.6429  139.9695  167.2889 C.3     1  UNL1        0.0435
     26 C         139.5027  139.7958  168.2480 C.3     1  UNL1        0.0041
     27 C         139.3386  140.7450  169.3978 C.3     1  UNL1        0.0058
     28 C         140.3147  141.8678  169.5887 C.3     1  UNL1        0.0401
     29 C         141.4549  142.0415  168.6297 C.3     1  UNL1        0.0490
     30 C         140.1506  142.8169  170.7385 C.2     1  UNL1        0.0501
     31 O         140.2936  142.3208  172.1468 O.co2   1  UNL1       -0.5492
     32 O         139.8434  144.2623  170.4800 O.co2   1  UNL1       -0.5492
@<TRIPOS>UNITY_ATOM_ATTR
31 1
charge -1
@<TRIPOS>BOND
     1    21    22    1
     2    22    20    1
     3    20    16    1
     4    16    17    1
     5    16    18   am
     6    18    19    2
     7    18    15    1
     8    15    14    1
     9    14     8    1
    10     8     9   ar
    11     9     1    1
    12     1     2   ar
    13     2     3   ar
    14     3     4   ar
    15     4    23    1
    16    24    23    1
    17    24    25    1
    18    25    26    1
    19    26    27    1
    20    27    28    1
    21    28    30    1
    22    30    31   ar
    23    30    32   ar
    24    28    29    1
    25     4     5   ar
    26     5     6    1
    27     5     7   ar
    28     9    10   ar
    29    10    11   ar
    30    11    12   ar
    31    12    13    1
    32    12     8   ar
    33     7     1   ar
    34    29    24    1
@<TRIPOS>MOLECULE
*****
 32 34 0 0 0
SMALL
GASTEIGER

@<TRIPOS>ATOM
      1 C         138.3235  140.3198  162.3048 C.ar    1  UNL1        0.1018
      2 C         137.7587  141.2750  163.3140 C.ar    1  UNL1        0.0239
      3 C         137.9831  141.0386  164.7781 C.ar    1  UNL1        0.0397
      4 C         138.7724  139.8469  165.2331 C.ar    1  UNL1        0.1518
      5 C         139.3372  138.8917  164.2239 C.ar    1  UNL1        0.0931
      6 C         140.1265  137.7000  164.6789 C.3     1  UNL1        0.0553
      7 N         139.1127  139.1281  162.7598 N.ar    1  UNL1       -0.2450
      8 C         138.5878  141.7354  160.0528 C.ar    1  UNL1        0.1218
      9 C         138.0990  140.5562  160.8406 C.ar    1  UNL1        0.1387
     10 N         137.3465  139.6549  159.9072 N.ar    1  UNL1       -0.1275
     11 N         137.3701  140.2771  158.5426 N.ar    1  UNL1       -0.0639
     12 N         138.1373  141.5629  158.6325 N.ar    1  UNL1       -0.2301
     13 C         138.4066  142.5100  157.5009 C.3     1  UNL1        0.1552
     14 C         139.3867  142.8852  160.5909 C.3     1  UNL1        0.2569
     15 O         140.6913  142.6317  161.2865 O.3     1  UNL1       -0.4278
     16 N         141.6451  144.0308  163.2569 N.am    1  UNL1       -0.2443
     17 C         142.4666  145.1833  163.7537 C.3     1  UNL1        0.1183
     18 C         141.5128  143.7843  161.7833 C.2     1  UNL1        0.4053
     19 O         142.2019  144.6903  160.8064 O.2     1  UNL1       -0.2262
     20 C         140.9560  143.1248  164.2338 C.3     1  UNL1        0.0968
     21 C         139.0358  144.5922  165.1875 C.3     1  UNL1        0.0018
     22 C         140.2252  143.7052  165.4082 C.3     1  UNL1        0.0216
     23 O         138.9969  139.6106  166.6973 O.3     1  UNL1       -0.4780
     24 C         140.0848  140.3499  167.4182 C.3     1  UNL1        0.1663
     25 C         141.4649  140.4107  166.8337 C.3     1  UNL1        0.0435
     26 C         142.5528  141.1501  167.5548 C.3     1  UNL1        0.0041
     27 C         142.2606  141.8286  168.8602 C.3     1  UNL1        0.0058
     28 C         140.8805  141.7677  169.4447 C.3     1  UNL1        0.0401
     29 C         139.7926  141.0284  168.7237 C.3     1  UNL1        0.0490
     30 C         140.5883  142.4463  170.7501 C.2     1  UNL1        0.0501
     31 O         139.5052  143.4808  170.8318 O.co2   1  UNL1       -0.5492
     32 O         141.3793  142.0903  171.9740 O.co2   1  UNL1       -0.5492
@<TRIPOS>UNITY_ATOM_ATTR
31 1
charge -1
@<TRIPOS>BOND
     1    21    22    1
     2    22    20    1
     3    20    16    1
     4    16    17    1
     5    16    18   am
     6    18    19    2
     7    18    15    1
     8    15    14    1
     9    14     8    1
    10     8     9   ar
    11     9     1    1
    12     1     2   ar
    13     2     3   ar
    14     3     4   ar
    15     4    23    1
    16    24    23    1
    17    24    25    1
    18    25    26    1
    19    26    27    1
    20    27    28    1
    21    28    30    1
    22    30    31   ar
    23    30    32   ar
    24    28    29    1
    25     4     5   ar
    26     5     6    1
    27     5     7   ar
    28     9    10   ar
    29    10    11   ar
    30    11    12   ar
    31    12    13    1
    32    12     8   ar
    33     7     1   ar
    34    29    24    1
@<TRIPOS>MOLECULE
*****
 32 34 0 0 0
SMALL
GASTEIGER

@<TRIPOS>ATOM
      1 C         142.6414  142.7716  162.5146 C.ar    1  UNL1        0.1018
      2 C         143.4155  143.4916  163.5787 C.ar    1  UNL1        0.0239
      3 C         143.5302  142.9005  164.9525 C.ar    1  UNL1        0.0397
      4 C         142.8707  141.5893  165.2622 C.ar    1  UNL1        0.1518
      5 C         142.0966  140.8693  164.1981 C.ar    1  UNL1        0.0931
      6 C         141.4371  139.5581  164.5079 C.3     1  UNL1        0.0553
      7 N         141.9819  141.4604  162.8244 N.ar    1  UNL1       -0.2450
      8 C         141.5399  144.4071  160.7098 C.ar    1  UNL1        0.1218
      9 C         142.5267  143.3628  161.1408 C.ar    1  UNL1        0.1387
     10 N         143.3786  143.0134  159.9567 N.ar    1  UNL1       -0.1275
     11 N         142.9184  143.8418  158.7939 N.ar    1  UNL1       -0.0639
     12 N         141.7819  144.7031  159.2594 N.ar    1  UNL1       -0.2301
     13 C         141.0212  145.6877  158.4216 C.3     1  UNL1        0.1552
     14 C         140.4946  145.0436  161.5771 C.3     1  UNL1        0.2569
     15 O         139.0530  144.6611  161.4175 O.3     1  UNL1       -0.4278
     16 N         137.9243  142.9551  163.0192 N.am    1  UNL1       -0.2443
     17 C         137.4819  141.5543  163.3226 C.3     1  UNL1        0.1183
     18 C         138.6106  143.2603  161.7209 C.2     1  UNL1        0.4053
     19 O         138.8546  142.1646  160.7259 O.2     1  UNL1       -0.2262
     20 C         137.6803  144.0508  164.0142 C.3     1  UNL1        0.0968
     21 C         139.6846  143.4955  165.5713 C.3     1  UNL1        0.0018
     22 C         138.7893  144.5052  164.9164 C.3     1  UNL1        0.0216
     23 O         142.9854  140.9981  166.6361 O.3     1  UNL1       -0.4780
     24 C         141.9994  141.3780  167.7007 C.3     1  UNL1        0.1663
     25 C         142.0755  142.7303  168.3453 C.3     1  UNL1        0.0435
     26 C         141.0894  143.1102  169.4100 C.3     1  UNL1        0.0041
     27 C         140.0274  142.1377  169.8301 C.3     1  UNL1        0.0058
     28 C         139.9514  140.7855  169.1854 C.3     1  UNL1        0.0401
     29 C         140.9373  140.4056  168.1208 C.3     1  UNL1        0.0490
     30 C         138.8893  139.8131  169.6055 C.2     1  UNL1        0.0501
     31 O         138.7436  139.4397  171.0509 O.co2   1  UNL1       -0.5492
     32 O         137.9730  139.2140  168.5800 O.co2   1  UNL1       -0.5492
@<TRIPOS>UNITY_ATOM_ATTR
31 1
charge -1
@<TRIPOS>BOND
     1    21    22    1
     2    22    20    1
     3    20    16    1
     4    16    17    1
     5    16    18   am
     6    18    19    2
     7    18    15    1
     8    15    14    1
     9    14     8    1
    10     8     9   ar
    11     9     1    1
    12     1     2   ar
    13     2     3   ar
    14     3     4   ar
    15     4    23    1
    16    24    23    1
    17    24    25    1
    18    25    26    1
    19    26    27    1
    20    27    28    1
    21    28    30    1
    22    30    31   ar
    23    30    32   ar
    24    28    29    1
    25     4     5   ar
    26     5     6    1
    27     5     7   ar
    28     9    10   ar
    29    10    11   ar
    30    11    12   ar
    31    12    13    1
    32    12     8   ar
    33     7     1   ar
    34    29    24    1
@<TRIPOS>MOLECULE
*****
 32 34 0 0 0
SMALL
GASTEIGER

@<TRIPOS>ATOM
      1 C         139.7715  139.3917  166.8325 C.ar    1  UNL1        0.1018
      2 C         138.6164  138.7876  166.0904 C.ar    1  UNL1        0.0239
      3 C         138.8523  138.0584  164.8010 C.ar    1  UNL1        0.0397
      4 C         140.2433  137.9333  164.2538 C.ar    1  UNL1        0.1518
      5 C         141.3984  138.5375  164.9958 C.ar    1  UNL1        0.0931
      6 C         142.7894  138.4125  164.4485 C.3     1  UNL1        0.0553
      7 N         141.1625  139.2667  166.2852 N.ar    1  UNL1       -0.2450
      8 C         140.1014  141.4594  168.4942 C.ar    1  UNL1        0.1218
      9 C         139.5356  140.1210  168.1220 C.ar    1  UNL1        0.1387
     10 N         138.6925  139.6399  169.2655 N.ar    1  UNL1       -0.1275
     11 N         138.7373  140.6809  170.3445 N.ar    1  UNL1       -0.0639
     12 N         139.6080  141.8055  169.8678 N.ar    1  UNL1       -0.2301
     13 C         139.9290  143.0565  170.6307 C.3     1  UNL1        0.1552
     14 C         141.0023  142.3036  167.6424 C.3     1  UNL1        0.2569
     15 O         140.4265  143.1273  166.5289 O.3     1  UNL1       -0.4278
     16 N         140.4421  143.8694  164.0391 N.am    1  UNL1       -0.2443
     17 C         141.0508  143.8094  162.6695 C.3     1  UNL1        0.1183
     18 C         141.0353  143.0674  165.1593 C.2     1  UNL1        0.4053
     19 O         142.2373  142.2054  164.9099 O.2     1  UNL1       -0.2262
     20 C         139.2401  144.7314  164.2885 C.3     1  UNL1        0.0968
     21 C         137.6818  142.6837  163.9293 C.3     1  UNL1        0.0018
     22 C         137.8720  144.1174  164.3274 C.3     1  UNL1        0.0216
     23 O         140.4792  137.2041  162.9643 O.3     1  UNL1       -0.4780
     24 C         140.4901  137.9578  161.6675 C.3     1  UNL1        0.1663
     25 C         139.2490  138.6549  161.1947 C.3     1  UNL1        0.0435
     26 C         139.2599  139.4087  159.8979 C.3     1  UNL1        0.0041
     27 C         140.5120  139.4654  159.0739 C.3     1  UNL1        0.0058
     28 C         141.7532  138.7683  159.5467 C.3     1  UNL1        0.0401
     29 C         141.7423  138.0145  160.8435 C.3     1  UNL1        0.0490
     30 C         143.0053  138.8250  158.7227 C.2     1  UNL1        0.0501
     31 O         143.1978  137.8677  157.5840 O.co2   1  UNL1       -0.5492
     32 O         144.0650  139.8390  159.0374 O.co2   1  UNL1       -0.5492
@<TRIPOS>UNITY_ATOM_ATTR
31 1
charge -1
@<TRIPOS>BOND
     1    21    22    1
     2    22    20    1
     3    20    16    1
     4    16    17    1
     5    16    18   am
     6    18    19    2
     7    18    15    1
     8    15    14    1
     9    14     8    1
    10     8     9   ar
    11     9     1    1
    12     1     2   ar
    13     2     3   ar
    14     3     4   ar
    15     4    23    1
    16    24    23    1
    17    24    25    1
    18    25    26    1
    19    26    27    1
    20    27    28    1
    21    28    30    1
    22    30    31   ar
    23    30    32   ar
    24    28    29    1
    25     4     5   ar
    26     5     6    1
    27     5     7   ar
    28     9    10   ar
    29    10    11   ar
    30    11    12   ar
    31    12    13    1
    32    12     8   ar
    33     7     1   ar
    34    29    24    1
@<TRIPOS>MOLECULE
*****
 32 34 0 0 0
SMALL
GASTEIGER

@<TRIPOS>ATOM
      1 C         142.3507  138.3553  162.0112 C.ar    1  UNL1        0.1018
      2 C         141.3714  137.7225  162.9548 C.ar    1  UNL1        0.0239
      3 C         141.5326  137.9029  164.4351 C.ar    1  UNL1        0.0397
      4 C         142.6731  138.7161  164.9718 C.ar    1  UNL1        0.1518
      5 C         143.6523  139.3490  164.0281 C.ar    1  UNL1        0.0931
      6 C         144.7927  140.1623  164.5648 C.3     1  UNL1        0.0553
      7 N         143.4911  139.1686  162.5478 N.ar    1  UNL1       -0.2450
      8 C         141.1018  138.7663  159.6837 C.ar    1  UNL1        0.1218
      9 C         142.1895  138.1750  160.5307 C.ar    1  UNL1        0.1387
     10 N         143.0876  137.3716  159.6375 N.ar    1  UNL1       -0.1275
     11 N         142.5550  137.4664  158.2384 N.ar    1  UNL1       -0.0639
     12 N         141.3277  138.3284  158.2670 N.ar    1  UNL1       -0.2301
     13 C         140.4760  138.6892  157.0862 C.3     1  UNL1        0.1552
     14 C         139.9845  139.6419  160.1684 C.3     1  UNL1        0.2569
     15 O         140.2904  140.9669  160.8013 O.3     1  UNL1       -0.4278
     16 N         138.6762  141.8445  162.6381 N.am    1  UNL1       -0.2443
     17 C         137.5575  142.7506  163.0595 C.3     1  UNL1        0.1183
     18 C         139.1717  141.8730  161.2227 C.2     1  UNL1        0.4053
     19 O         138.5485  142.8075  160.2285 O.2     1  UNL1       -0.2262
     20 C         139.2994  140.9100  163.6323 C.3     1  UNL1        0.0968
     21 C         138.4256  139.7133  165.7665 C.3     1  UNL1        0.0018
     22 C         138.4716  139.8349  164.2721 C.3     1  UNL1        0.0216
     23 O         142.8343  138.8965  166.4522 O.3     1  UNL1       -0.4780
     24 C         142.0309  139.9384  167.1727 C.3     1  UNL1        0.1663
     25 C         141.7430  141.2536  166.5112 C.3     1  UNL1        0.0435
     26 C         140.9396  142.2955  167.2318 C.3     1  UNL1        0.0041
     27 C         140.4242  142.0222  168.6137 C.3     1  UNL1        0.0058
     28 C         140.7122  140.7071  169.2751 C.3     1  UNL1        0.0401
     29 C         141.5155  139.6652  168.5547 C.3     1  UNL1        0.0490
     30 C         140.1968  140.4338  170.6570 C.2     1  UNL1        0.0501
     31 O         139.0376  139.5027  170.8546 O.co2   1  UNL1       -0.5492
     32 O         140.8407  141.0918  171.8414 O.co2   1  UNL1       -0.5492
@<TRIPOS>UNITY_ATOM_ATTR
31 1
charge -1
@<TRIPOS>BOND
     1    21    22    1
     2    22    20    1
     3    20    16    1
     4    16    17    1
     5    16    18   am
     6    18    19    2
     7    18    15    1
     8    15    14    1
     9    14     8    1
    10     8     9   ar
    11     9     1    1
    12     1     2   ar
    13     2     3   ar
    14     3     4   ar
    15     4    23    1
    16    24    23    1
    17    24    25    1
    18    25    26    1
    19    26    27    1
    20    27    28    1
    21    28    30    1
    22    30    31   ar
    23    30    32   ar
    24    28    29    1
    25     4     5   ar
    26     5     6    1
    27     5     7   ar
    28     9    10   ar
    29    10    11   ar
    30    11    12   ar
    31    12    13    1
    32    12     8   ar
    33     7     1   ar
    34    29    24    1
@<TRIPOS>MOLECULE
*****
 32 34 0 0 0
SMALL
GASTEIGER

@<TRIPOS>ATOM
      1 C         143.2276  139.9183  162.0629 C.ar    1  UNL1        0.1018
      2 C         141.7986  140.0996  162.4813 C.ar    1  UNL1        0.0239
      3 C         141.3873  139.8036  163.8931 C.ar    1  UNL1        0.0397
      4 C         142.4049  139.3263  164.8864 C.ar    1  UNL1        0.1518
      5 C         143.8338  139.1450  164.4679 C.ar    1  UNL1        0.0931
      6 C         144.8514  138.6677  165.4612 C.3     1  UNL1        0.0553
      7 N         144.2452  139.4410  163.0562 N.ar    1  UNL1       -0.2450
      8 C         144.1130  141.5387  160.1301 C.ar    1  UNL1        0.1218
      9 C         143.6390  140.2143  160.6510 C.ar    1  UNL1        0.1387
     10 N         143.6487  139.2379  159.5124 N.ar    1  UNL1       -0.1275
     11 N         144.1286  139.9589  158.2877 N.ar    1  UNL1       -0.0639
     12 N         144.4156  141.3809  158.6694 N.ar    1  UNL1       -0.2301
     13 C         144.9171  142.4561  157.7517 C.3     1  UNL1        0.1552
     14 C         144.2588  142.7995  160.9294 C.3     1  UNL1        0.2569
     15 O         143.1737  143.2163  161.8775 O.3     1  UNL1       -0.4278
     16 N         141.2660  144.8758  162.4746 N.am    1  UNL1       -0.2443
     17 C         140.2483  145.8925  162.0496 C.3     1  UNL1        0.1183
     18 C         142.1560  144.2330  161.4525 C.2     1  UNL1        0.4053
     19 O         142.0283  144.6068  160.0055 O.2     1  UNL1       -0.2262
     20 C         141.3938  144.5020  163.9216 C.3     1  UNL1        0.0968
     21 C         139.9666  143.3824  165.7816 C.3     1  UNL1        0.0018
     22 C         140.6618  143.3060  164.4547 C.3     1  UNL1        0.0216
     23 O         141.9934  139.0303  166.2982 O.3     1  UNL1       -0.4780
     24 C         142.0206  140.1177  167.3310 C.3     1  UNL1        0.1663
     25 C         142.8299  141.3580  167.0930 C.3     1  UNL1        0.0435
     26 C         142.8571  142.4455  168.1259 C.3     1  UNL1        0.0041
     27 C         142.0751  142.2926  169.3967 C.3     1  UNL1        0.0058
     28 C         141.2658  141.0523  169.6347 C.3     1  UNL1        0.0401
     29 C         141.2386  139.9648  168.6019 C.3     1  UNL1        0.0490
     30 C         140.4837  140.8994  170.9055 C.2     1  UNL1        0.0501
     31 O         139.6329  139.6829  171.1208 O.co2   1  UNL1       -0.5492
     32 O         140.5525  141.9629  171.9611 O.co2   1  UNL1       -0.5492
@<TRIPOS>UNITY_ATOM_ATTR
31 1
charge -1
@<TRIPOS>BOND
     1    21    22    1
     2    22    20    1
     3    20    16    1
     4    16    17    1
     5    16    18   am
     6    18    19    2
     7    18    15    1
     8    15    14    1
     9    14     8    1
    10     8     9   ar
    11     9     1    1
    12     1     2   ar
    13     2     3   ar
    14     3     4   ar
    15     4    23    1
    16    24    23    1
    17    24    25    1
    18    25    26    1
    19    26    27    1
    20    27    28    1
    21    28    30    1
    22    30    31   ar
    23    30    32   ar
    24    28    29    1
    25     4     5   ar
    26     5     6    1
    27     5     7   ar
    28     9    10   ar
    29    10    11   ar
    30    11    12   ar
    31    12    13    1
    32    12     8   ar
    33     7     1   ar
    34    29    24    1
@<TRIPOS>MOLECULE
*****
 32 34 0 0 0
SMALL
GASTEIGER

@<TRIPOS>ATOM
      1 C         139.3729  140.0837  162.1727 C.ar    1  UNL1        0.1018
      2 C         140.8552  139.9420  162.3532 C.ar    1  UNL1        0.0239
      3 C         141.4196  139.6329  163.7081 C.ar    1  UNL1        0.0397
      4 C         140.5017  139.4656  164.8826 C.ar    1  UNL1        0.1518
      5 C         139.0194  139.6073  164.7021 C.ar    1  UNL1        0.0931
      6 C         138.1015  139.4400  165.8766 C.3     1  UNL1        0.0553
      7 N         138.4550  139.9163  163.3472 N.ar    1  UNL1       -0.2450
      8 C         139.0102  141.6640  160.0476 C.ar    1  UNL1        0.1218
      9 C         138.8084  140.3927  160.8177 C.ar    1  UNL1        0.1387
     10 N         137.9430  139.4848  159.9951 N.ar    1  UNL1       -0.1275
     11 N         137.6100  140.1949  158.7165 N.ar    1  UNL1       -0.0639
     12 N         138.2696  141.5418  158.7489 N.ar    1  UNL1       -0.2301
     13 C         138.2006  142.5835  157.6718 C.3     1  UNL1        0.1552
     14 C         139.8119  142.8494  160.4971 C.3     1  UNL1        0.2569
     15 O         139.1344  143.9936  161.1911 O.3     1  UNL1       -0.4278
     16 N         139.3792  144.3442  163.7537 N.am    1  UNL1       -0.2443
     17 C         138.8479  144.1687  165.1454 C.3     1  UNL1        0.1183
     18 C         138.6031  143.8181  162.5828 C.2     1  UNL1        0.4053
     19 O         137.2958  143.1167  162.8037 O.2     1  UNL1       -0.2262
     20 C         140.6866  145.0456  163.5328 C.3     1  UNL1        0.0968
     21 C         143.2790  145.0772  163.7016 C.3     1  UNL1        0.0018
     22 C         141.9686  144.3944  163.9601 C.3     1  UNL1        0.0216
     23 O         141.0662  139.1565  166.2376 O.3     1  UNL1       -0.4780
     24 C         141.4600  140.2731  167.1585 C.3     1  UNL1        0.1663
     25 C         142.6054  141.1726  166.7996 C.3     1  UNL1        0.0435
     26 C         142.9992  142.2892  167.7206 C.3     1  UNL1        0.0041
     27 C         142.2476  142.5063  169.0004 C.3     1  UNL1        0.0058
     28 C         141.1021  141.6067  169.3593 C.3     1  UNL1        0.0401
     29 C         140.7083  140.4902  168.4383 C.3     1  UNL1        0.0490
     30 C         140.3505  141.8238  170.6390 C.2     1  UNL1        0.0501
     31 O         139.2652  142.8571  170.7054 O.co2   1  UNL1       -0.5492
     32 O         140.6841  141.0075  171.8525 O.co2   1  UNL1       -0.5492
@<TRIPOS>UNITY_ATOM_ATTR
31 1
charge -1
@<TRIPOS>BOND
     1    21    22    1
     2    22    20    1
     3    20    16    1
     4    16    17    1
     5    16    18   am
     6    18    19    2
     7    18    15    1
     8    15    14    1
     9    14     8    1
    10     8     9   ar
    11     9     1    1
    12     1     2   ar
    13     2     3   ar
    14     3     4   ar
    15     4    23    1
    16    24    23    1
    17    24    25    1
    18    25    26    1
    19    26    27    1
    20    27    28    1
    21    28    30    1
    22    30    31   ar
    23    30    32   ar
    24    28    29    1
    25     4     5   ar
    26     5     6    1
    27     5     7   ar
    28     9    10   ar
    29    10    11   ar
    30    11    12   ar
    31    12    13    1
    32    12     8   ar
    33     7     1   ar
    34    29    24    1
@<TRIPOS>MOLECULE
*****
 32 34 0 0 0
SMALL
GASTEIGER

@<TRIPOS>ATOM
      1 C         139.3580  141.9910  162.4454 C.ar    1  UNL1        0.1018
      2 C         138.7435  142.6274  163.6567 C.ar    1  UNL1        0.0239
      3 C         138.7528  141.9036  164.9704 C.ar    1  UNL1        0.0397
      4 C         139.3767  140.5434  165.0729 C.ar    1  UNL1        0.1518
      5 C         139.9913  139.9070  163.8616 C.ar    1  UNL1        0.0931
      6 C         140.6152  138.5467  163.9640 C.3     1  UNL1        0.0553
      7 N         139.9819  140.6308  162.5479 N.ar    1  UNL1       -0.2450
      8 C         140.2202  143.8777  160.7594 C.ar    1  UNL1        0.1218
      9 C         139.3487  142.7149  161.1316 C.ar    1  UNL1        0.1387
     10 N         138.4663  142.4030  159.9594 N.ar    1  UNL1       -0.1275
     11 N         138.7924  143.3731  158.8627 N.ar    1  UNL1       -0.0639
     12 N         139.8764  144.2845  159.3572 N.ar    1  UNL1       -0.2301
     13 C         140.5060  145.4057  158.5849 C.3     1  UNL1        0.1552
     14 C         141.2539  144.5207  161.6356 C.3     1  UNL1        0.2569
     15 O         142.6950  144.5207  161.2194 O.3     1  UNL1       -0.4278
     16 N         144.2121  142.8707  162.5331 N.am    1  UNL1       -0.2443
     17 C         145.0084  141.6007  162.5874 C.3     1  UNL1        0.1183
     18 C         143.4914  143.2507  161.2737 C.2     1  UNL1        0.4053
     19 O         143.5670  142.3608  160.0686 O.2     1  UNL1       -0.2262
     20 C         144.1364  143.7606  163.7383 C.3     1  UNL1        0.0968
     21 C         142.7283  142.4571  165.4899 C.3     1  UNL1        0.0018
     22 C         142.9513  143.6829  164.6546 C.3     1  UNL1        0.0216
     23 O         139.3861  139.8195  166.3867 O.3     1  UNL1       -0.4780
     24 C         140.3455  140.2319  167.4634 C.3     1  UNL1        0.1663
     25 C         141.7265  139.6475  167.5015 C.3     1  UNL1        0.0435
     26 C         142.6860  140.0599  168.5783 C.3     1  UNL1        0.0041
     27 C         142.2645  141.0567  169.6169 C.3     1  UNL1        0.0058
     28 C         140.8835  141.6411  169.5788 C.3     1  UNL1        0.0401
     29 C         139.9241  141.2287  168.5021 C.3     1  UNL1        0.0490
     30 C         140.4620  142.6379  170.6174 C.2     1  UNL1        0.0501
     31 O         140.0560  144.0223  170.2071 O.co2   1  UNL1       -0.5492
     32 O         140.4466  142.2502  172.0664 O.co2   1  UNL1       -0.5492
@<TRIPOS>UNITY_ATOM_ATTR
31 1
charge -1
@<TRIPOS>BOND
     1    21    22    1
     2    22    20    1
     3    20    16    1
     4    16    17    1
     5    16    18   am
     6    18    19    2
     7    18    15    1
     8    15    14    1
     9    14     8    1
    10     8     9   ar
    11     9     1    1
    12     1     2   ar
    13     2     3   ar
    14     3     4   ar
    15     4    23    1
    16    24    23    1
    17    24    25    1
    18    25    26    1
    19    26    27    1
    20    27    28    1
    21    28    30    1
    22    30    31   ar
    23    30    32   ar
    24    28    29    1
    25     4     5   ar
    26     5     6    1
    27     5     7   ar
    28     9    10   ar
    29    10    11   ar
    30    11    12   ar
    31    12    13    1
    32    12     8   ar
    33     7     1   ar
    34    29    24    1
