@<TRIPOS>MOLECULE
*****
 35 39 0 0 0
SMALL
GASTEIGER

@<TRIPOS>ATOM
      1 N         142.8915  140.7730  166.8159 N.3     1  UNL1       -0.2724
      2 C         142.9998  139.3102  167.1302 C.3     1  UNL1        0.0721
      3 C         143.5838  138.6208  165.9328 C.3     1  UNL1        0.0187
      4 C         143.8363  139.6574  164.8785 C.3     1  UNL1        0.0178
      5 C         143.4084  140.9875  165.4243 C.3     1  UNL1        0.0721
      6 C         142.3595  141.8346  167.7323 C.3     1  UNL1        0.0768
      7 C         140.8789  142.0219  167.8836 C.3     1  UNL1        0.0439
      8 C         139.9316  141.2220  167.0392 C.ar    1  UNL1       -0.0178
      9 C         139.3858  139.9218  167.5507 C.ar    1  UNL1       -0.0040
     10 C         138.4386  139.1220  166.7063 C.ar    1  UNL1        0.0028
     11 C         138.0372  139.6224  165.3503 C.ar    1  UNL1        0.0369
     12 C         138.5830  140.9226  164.8388 C.ar    1  UNL1        0.1383
     13 C         139.5302  141.7224  165.6832 C.ar    1  UNL1        0.0327
     14 O         138.1815  141.4229  163.4829 O.3     1  UNL1       -0.4740
     15 C         138.4088  142.8594  163.1161 C.3     1  UNL1        0.2246
     16 C         139.4659  143.6062  162.3577 C.3     1  UNL1        0.1882
     17 O         138.7301  144.8911  162.5974 O.3     1  UNL1       -0.3459
     18 C         137.6731  144.1446  163.3558 C.3     1  UNL1        0.1882
     19 C         140.3456  143.0089  168.8792 C.3     1  UNL1        0.0474
     20 O         140.7999  141.3708  170.8441 O.co2   1  UNL1       -0.5492
     21 C         140.1151  142.5900  170.3010 C.2     1  UNL1        0.0507
     22 O         139.1998  143.3901  171.1796 O.co2   1  UNL1       -0.5492
     23 C         144.4151  139.4078  163.5174 C.3     1  UNL1        0.0077
     24 C         143.7718  138.4102  162.6003 C.3     1  UNL1        0.0459
     25 C         142.2899  138.4489  162.3710 C.ar    1  UNL1        0.0603
     26 C         141.3938  137.4871  163.0935 C.ar    1  UNL1        0.0145
     27 C         139.9120  137.5258  162.8642 C.ar    1  UNL1       -0.0003
     28 C         139.3261  138.5263  161.9124 C.ar    1  UNL1        0.0092
     29 C         140.2222  139.4881  161.1900 C.ar    1  UNL1        0.1240
     30 N         141.7041  139.4494  161.4193 N.ar    1  UNL1       -0.2356
     31 N         139.6364  140.4886  160.2382 N.pl3   1  UNL1       -0.3184
     32 C         138.1546  140.5273  160.0090 C.3     1  UNL1        0.0885
     33 C         137.2585  139.5655  160.7314 C.3     1  UNL1        0.0260
     34 C         137.8443  138.5650  161.6831 C.3     1  UNL1        0.0309
     35 H         140.2246  141.1199  159.7641 H       1  UNL1        0.1482
@<TRIPOS>UNITY_ATOM_ATTR
20 1
charge -1
@<TRIPOS>BOND
     1    20    21   ar
     2    21    22   ar
     3    21    19    1
     4     7    19    1
     5     7     6    1
     6     6     1    1
     7     1     2    1
     8     2     3    1
     9     3     4    1
    10     4    23    1
    11    23    24    1
    12    24    25    1
    13    25    26   ar
    14    26    27   ar
    15    27    28   ar
    16    28    29   ar
    17    29    30   ar
    18    29    31    1
    19    31    32    1
    20    32    33    1
    21    33    34    1
    22     4     5    1
    23     7     8    1
    24     8     9   ar
    25     9    10   ar
    26    10    11   ar
    27    11    12   ar
    28    12    14    1
    29    14    15    1
    30    15    16    1
    31    16    17    1
    32    17    18    1
    33    12    13   ar
    34     5     1    1
    35    13     8   ar
    36    30    25   ar
    37    18    15    1
    38    34    28    1
    39    31    35    1
@<TRIPOS>MOLECULE
*****
 35 39 0 0 0
SMALL
GASTEIGER

@<TRIPOS>ATOM
      1 N         138.0761  142.0068  163.4692 N.3     1  UNL1       -0.2724
      2 C         137.8919  142.8504  164.6958 C.3     1  UNL1        0.0721
      3 C         138.2942  144.2551  164.3570 C.3     1  UNL1        0.0187
      4 C         138.7271  144.2798  162.9210 C.3     1  UNL1        0.0178
      5 C         138.5923  142.8902  162.3724 C.3     1  UNL1        0.0721
      6 C         137.7938  140.5377  163.3589 C.3     1  UNL1        0.0768
      7 C         138.7490  139.5439  163.9504 C.3     1  UNL1        0.0439
      8 C         139.6295  139.9413  165.0980 C.ar    1  UNL1       -0.0178
      9 C         140.9698  140.5615  164.8353 C.ar    1  UNL1       -0.0040
     10 C         141.8502  140.9588  165.9828 C.ar    1  UNL1        0.0028
     11 C         141.3904  140.7360  167.3932 C.ar    1  UNL1        0.0369
     12 C         140.0502  140.1158  167.6559 C.ar    1  UNL1        0.1383
     13 C         139.1697  139.7184  166.5083 C.ar    1  UNL1        0.0327
     14 O         139.5904  139.8929  169.0662 O.3     1  UNL1       -0.4740
     15 C         140.0046  140.8444  170.1492 C.3     1  UNL1        0.2246
     16 C         139.6797  142.2682  170.4917 C.3     1  UNL1        0.1882
     17 O         140.5904  142.1900  171.6810 O.3     1  UNL1       -0.3459
     18 C         140.9154  140.7662  171.3386 C.3     1  UNL1        0.1882
     19 C         138.8236  138.1528  163.3945 C.3     1  UNL1        0.0474
     20 O         140.6300  137.5898  161.6139 O.co2   1  UNL1       -0.5492
     21 C         140.1535  137.5587  163.0359 C.2     1  UNL1        0.0507
     22 O         141.0070  136.9337  164.0993 O.co2   1  UNL1       -0.5492
     23 C         139.2100  145.4827  162.1663 C.3     1  UNL1        0.0077
     24 C         140.6194  145.5314  161.6552 C.3     1  UNL1        0.0459
     25 C         141.6958  144.7495  162.3480 C.ar    1  UNL1        0.0603
     26 C         142.3346  145.2922  163.5919 C.ar    1  UNL1        0.0145
     27 C         143.4110  144.5103  164.2847 C.ar    1  UNL1       -0.0003
     28 C         143.8487  143.1856  163.7334 C.ar    1  UNL1        0.0092
     29 C         143.2099  142.6429  162.4895 C.ar    1  UNL1        0.1240
     30 N         142.1335  143.4249  161.7967 N.ar    1  UNL1       -0.2356
     31 N         143.6476  141.3183  161.9382 N.pl3   1  UNL1       -0.3184
     32 C         144.7240  140.5364  162.6309 C.3     1  UNL1        0.0885
     33 C         145.3628  141.0791  163.8749 C.3     1  UNL1        0.0260
     34 C         144.9251  142.4037  164.4261 C.3     1  UNL1        0.0309
     35 H         143.2283  140.9621  161.1218 H       1  UNL1        0.1482
@<TRIPOS>UNITY_ATOM_ATTR
20 1
charge -1
@<TRIPOS>BOND
     1    20    21   ar
     2    21    22   ar
     3    21    19    1
     4     7    19    1
     5     7     6    1
     6     6     1    1
     7     1     2    1
     8     2     3    1
     9     3     4    1
    10     4    23    1
    11    23    24    1
    12    24    25    1
    13    25    26   ar
    14    26    27   ar
    15    27    28   ar
    16    28    29   ar
    17    29    30   ar
    18    29    31    1
    19    31    32    1
    20    32    33    1
    21    33    34    1
    22     4     5    1
    23     7     8    1
    24     8     9   ar
    25     9    10   ar
    26    10    11   ar
    27    11    12   ar
    28    12    14    1
    29    14    15    1
    30    15    16    1
    31    16    17    1
    32    17    18    1
    33    12    13   ar
    34     5     1    1
    35    13     8   ar
    36    30    25   ar
    37    18    15    1
    38    34    28    1
    39    31    35    1
@<TRIPOS>MOLECULE
*****
 35 39 0 0 0
SMALL
GASTEIGER

@<TRIPOS>ATOM
      1 N         141.8856  142.3590  165.7433 N.3     1  UNL1       -0.2724
      2 C         142.3973  143.1506  164.5764 C.3     1  UNL1        0.0721
      3 C         141.3516  144.1607  164.2073 C.3     1  UNL1        0.0187
      4 C         140.1937  143.9934  165.1460 C.3     1  UNL1        0.0178
      5 C         140.5238  142.8798  166.0953 C.3     1  UNL1        0.0721
      6 C         142.6089  141.2426  166.4364 C.3     1  UNL1        0.0768
      7 C         141.8362  140.0988  167.0235 C.3     1  UNL1        0.0439
      8 C         140.8944  139.3097  166.1630 C.ar    1  UNL1       -0.0178
      9 C         139.4305  139.2762  166.4885 C.ar    1  UNL1       -0.0040
     10 C         138.4888  138.4872  165.6279 C.ar    1  UNL1        0.0028
     11 C         139.0109  137.7317  164.4419 C.ar    1  UNL1        0.0369
     12 C         140.4747  137.7653  164.1164 C.ar    1  UNL1        0.1383
     13 C         141.4165  138.5543  164.9769 C.ar    1  UNL1        0.0327
     14 O         140.9968  137.0098  162.9303 O.3     1  UNL1       -0.4740
     15 C         141.8002  137.7212  161.8824 C.3     1  UNL1        0.2246
     16 C         143.2594  137.9960  161.6693 C.3     1  UNL1        0.1882
     17 O         142.9364  138.7275  160.4002 O.3     1  UNL1       -0.3459
     18 C         141.4773  138.4527  160.6132 C.3     1  UNL1        0.1882
     19 C         142.0053  139.7440  168.4711 C.3     1  UNL1        0.0474
     20 O         140.9602  141.8547  169.5679 O.co2   1  UNL1       -0.5492
     21 C         141.1120  140.3637  169.5045 C.2     1  UNL1        0.0507
     22 O         140.3704  139.4924  170.4745 O.co2   1  UNL1       -0.5492
     23 C         138.9279  144.7982  165.1370 C.3     1  UNL1        0.0077
     24 C         137.6784  144.2241  164.5379 C.3     1  UNL1        0.0459
     25 C         137.7722  143.1733  163.4716 C.ar    1  UNL1        0.0603
     26 C         137.5798  141.7280  163.8239 C.ar    1  UNL1        0.0145
     27 C         137.6735  140.6771  162.7577 C.ar    1  UNL1       -0.0003
     28 C         137.9596  141.0715  161.3390 C.ar    1  UNL1        0.0092
     29 C         138.1520  142.5168  160.9866 C.ar    1  UNL1        0.1240
     30 N         138.0583  143.5677  162.0530 N.ar    1  UNL1       -0.2356
     31 N         138.4381  142.9113  159.5680 N.pl3   1  UNL1       -0.3184
     32 C         138.5319  141.8604  158.5018 C.3     1  UNL1        0.0885
     33 C         138.3395  140.4151  158.8542 C.3     1  UNL1        0.0260
     34 C         138.0534  140.0207  160.2728 C.3     1  UNL1        0.0309
     35 H         138.5644  143.8598  159.3367 H       1  UNL1        0.1482
@<TRIPOS>UNITY_ATOM_ATTR
20 1
charge -1
@<TRIPOS>BOND
     1    20    21   ar
     2    21    22   ar
     3    21    19    1
     4     7    19    1
     5     7     6    1
     6     6     1    1
     7     1     2    1
     8     2     3    1
     9     3     4    1
    10     4    23    1
    11    23    24    1
    12    24    25    1
    13    25    26   ar
    14    26    27   ar
    15    27    28   ar
    16    28    29   ar
    17    29    30   ar
    18    29    31    1
    19    31    32    1
    20    32    33    1
    21    33    34    1
    22     4     5    1
    23     7     8    1
    24     8     9   ar
    25     9    10   ar
    26    10    11   ar
    27    11    12   ar
    28    12    14    1
    29    14    15    1
    30    15    16    1
    31    16    17    1
    32    17    18    1
    33    12    13   ar
    34     5     1    1
    35    13     8   ar
    36    30    25   ar
    37    18    15    1
    38    34    28    1
    39    31    35    1
@<TRIPOS>MOLECULE
*****
 35 39 0 0 0
SMALL
GASTEIGER

@<TRIPOS>ATOM
      1 N         138.3858  140.9442  164.7327 N.3     1  UNL1       -0.2724
      2 C         138.1581  140.0547  165.9189 C.3     1  UNL1        0.0721
      3 C         138.5838  138.6658  165.5452 C.3     1  UNL1        0.0187
      4 C         139.0747  138.6969  164.1282 C.3     1  UNL1        0.0178
      5 C         138.9524  140.1050  163.6260 C.3     1  UNL1        0.0721
      6 C         138.0977  142.4147  164.6651 C.3     1  UNL1        0.0768
      7 C         139.1866  143.4063  164.9501 C.3     1  UNL1        0.0439
      8 C         140.3841  142.9946  165.7543 C.ar    1  UNL1       -0.0178
      9 C         141.6904  142.7228  165.0690 C.ar    1  UNL1       -0.0040
     10 C         142.8878  142.3112  165.8731 C.ar    1  UNL1        0.0028
     11 C         142.7790  142.1714  167.3627 C.ar    1  UNL1        0.0369
     12 C         141.4727  142.4433  168.0480 C.ar    1  UNL1        0.1383
     13 C         140.2753  142.8549  167.2438 C.ar    1  UNL1        0.0327
     14 O         141.3639  142.3036  169.5375 O.3     1  UNL1       -0.4740
     15 C         140.5383  141.1997  170.1289 C.3     1  UNL1        0.2246
     16 C         140.6797  140.2849  171.3093 C.3     1  UNL1        0.1882
     17 O         139.3706  139.6385  170.9651 O.3     1  UNL1       -0.3459
     18 C         139.2292  140.5532  169.7848 C.3     1  UNL1        0.1882
     19 C         139.0780  144.8093  164.4310 C.3     1  UNL1        0.0474
     20 O         141.0270  145.5621  162.8867 O.co2   1  UNL1       -0.5492
     21 C         139.5969  145.1457  163.0644 C.2     1  UNL1        0.0507
     22 O         138.6858  145.0656  161.8755 O.co2   1  UNL1       -0.5492
     23 C         139.5964  137.5255  163.3499 C.3     1  UNL1        0.0077
     24 C         140.9977  137.0399  163.5746 C.3     1  UNL1        0.0459
     25 C         142.1238  138.0246  163.6862 C.ar    1  UNL1        0.0603
     26 C         142.9810  138.0474  164.9169 C.ar    1  UNL1        0.0145
     27 C         144.1071  139.0320  165.0285 C.ar    1  UNL1       -0.0003
     28 C         144.3761  139.9938  163.9092 C.ar    1  UNL1        0.0092
     29 C         143.5189  139.9710  162.6785 C.ar    1  UNL1        0.1240
     30 N         142.3928  138.9863  162.5670 N.ar    1  UNL1       -0.2356
     31 N         143.7879  140.9327  161.5593 N.pl3   1  UNL1       -0.3184
     32 C         144.9140  141.9173  161.6708 C.3     1  UNL1        0.0885
     33 C         145.7711  141.9401  162.9016 C.3     1  UNL1        0.0260
     34 C         145.5022  140.9783  164.0208 C.3     1  UNL1        0.0309
     35 H         143.2253  140.9177  160.7515 H       1  UNL1        0.1482
@<TRIPOS>UNITY_ATOM_ATTR
20 1
charge -1
@<TRIPOS>BOND
     1    20    21   ar
     2    21    22   ar
     3    21    19    1
     4     7    19    1
     5     7     6    1
     6     6     1    1
     7     1     2    1
     8     2     3    1
     9     3     4    1
    10     4    23    1
    11    23    24    1
    12    24    25    1
    13    25    26   ar
    14    26    27   ar
    15    27    28   ar
    16    28    29   ar
    17    29    30   ar
    18    29    31    1
    19    31    32    1
    20    32    33    1
    21    33    34    1
    22     4     5    1
    23     7     8    1
    24     8     9   ar
    25     9    10   ar
    26    10    11   ar
    27    11    12   ar
    28    12    14    1
    29    14    15    1
    30    15    16    1
    31    16    17    1
    32    17    18    1
    33    12    13   ar
    34     5     1    1
    35    13     8   ar
    36    30    25   ar
    37    18    15    1
    38    34    28    1
    39    31    35    1
@<TRIPOS>MOLECULE
*****
 35 39 0 0 0
SMALL
GASTEIGER

@<TRIPOS>ATOM
      1 N         138.3290  139.9198  163.2661 N.3     1  UNL1       -0.2724
      2 C         138.2815  140.2340  161.8001 C.3     1  UNL1        0.0721
      3 C         137.9968  141.6990  161.6490 C.3     1  UNL1        0.0187
      4 C         137.8685  142.2902  163.0215 C.3     1  UNL1        0.0178
      5 C         138.0738  141.1906  164.0209 C.3     1  UNL1        0.0721
      6 C         138.5866  138.5716  163.8709 C.3     1  UNL1        0.0768
      7 C         139.9721  138.1979  164.3079 C.3     1  UNL1        0.0439
      8 C         140.5494  138.7906  165.5591 C.ar    1  UNL1       -0.0178
      9 C         142.0352  138.8095  165.7639 C.ar    1  UNL1       -0.0040
     10 C         142.6124  139.4022  167.0150 C.ar    1  UNL1        0.0028
     11 C         141.7038  139.9761  168.0615 C.ar    1  UNL1        0.0369
     12 C         140.2179  139.9572  167.8568 C.ar    1  UNL1        0.1383
     13 C         139.6407  139.3645  166.6056 C.ar    1  UNL1        0.0327
     14 O         139.3093  140.5311  168.9033 O.3     1  UNL1       -0.4740
     15 C         139.8879  141.2373  170.0934 C.3     1  UNL1        0.2246
     16 C         140.6695  140.8138  171.3017 C.3     1  UNL1        0.1882
     17 O         140.7062  142.2361  171.7765 O.3     1  UNL1       -0.3459
     18 C         139.9247  142.6597  170.5683 C.3     1  UNL1        0.1882
     19 C         140.7802  137.2315  163.4937 C.3     1  UNL1        0.0474
     20 O         140.7550  137.8510  160.9706 O.co2   1  UNL1       -0.5492
     21 C         141.4991  137.7039  162.2648 C.2     1  UNL1        0.0507
     22 O         142.9619  138.0291  162.3300 O.co2   1  UNL1       -0.5492
     23 C         137.5846  143.7285  163.3389 C.3     1  UNL1        0.0077
     24 C         138.6429  144.5786  163.9771 C.3     1  UNL1        0.0459
     25 C         139.9926  143.9968  164.2769 C.ar    1  UNL1        0.0603
     26 C         140.2834  143.4397  165.6390 C.ar    1  UNL1        0.0145
     27 C         141.6331  142.8579  165.9388 C.ar    1  UNL1       -0.0003
     28 C         142.6919  142.8331  164.8766 C.ar    1  UNL1        0.0092
     29 C         142.4011  143.3901  163.5145 C.ar    1  UNL1        0.1240
     30 N         141.0514  143.9720  163.2147 N.ar    1  UNL1       -0.2356
     31 N         143.4599  143.3653  162.4523 N.pl3   1  UNL1       -0.3184
     32 C         144.8095  142.7835  162.7521 C.3     1  UNL1        0.0885
     33 C         145.1003  142.2265  164.1142 C.3     1  UNL1        0.0260
     34 C         144.0416  142.2513  165.1764 C.3     1  UNL1        0.0309
     35 H         143.2690  143.7309  161.5584 H       1  UNL1        0.1482
@<TRIPOS>UNITY_ATOM_ATTR
20 1
charge -1
@<TRIPOS>BOND
     1    20    21   ar
     2    21    22   ar
     3    21    19    1
     4     7    19    1
     5     7     6    1
     6     6     1    1
     7     1     2    1
     8     2     3    1
     9     3     4    1
    10     4    23    1
    11    23    24    1
    12    24    25    1
    13    25    26   ar
    14    26    27   ar
    15    27    28   ar
    16    28    29   ar
    17    29    30   ar
    18    29    31    1
    19    31    32    1
    20    32    33    1
    21    33    34    1
    22     4     5    1
    23     7     8    1
    24     8     9   ar
    25     9    10   ar
    26    10    11   ar
    27    11    12   ar
    28    12    14    1
    29    14    15    1
    30    15    16    1
    31    16    17    1
    32    17    18    1
    33    12    13   ar
    34     5     1    1
    35    13     8   ar
    36    30    25   ar
    37    18    15    1
    38    34    28    1
    39    31    35    1
@<TRIPOS>MOLECULE
*****
 35 39 0 0 0
SMALL
GASTEIGER

@<TRIPOS>ATOM
      1 N         139.5393  138.9705  162.6158 N.3     1  UNL1       -0.2724
      2 C         139.9948  137.8260  163.4719 C.3     1  UNL1        0.0721
      3 C         141.2553  137.2737  162.8751 C.3     1  UNL1        0.0187
      4 C         141.5789  138.0768  161.6502 C.3     1  UNL1        0.0178
      5 C         140.5183  139.1255  161.4900 C.3     1  UNL1        0.0721
      6 C         138.3191  139.8121  162.8453 C.3     1  UNL1        0.0768
      7 C         138.3382  140.8929  163.8853 C.3     1  UNL1        0.0439
      8 C         138.6503  140.5545  165.3130 C.ar    1  UNL1       -0.0178
      9 C         137.9990  139.3697  165.9626 C.ar    1  UNL1       -0.0040
     10 C         138.3111  139.0314  167.3902 C.ar    1  UNL1        0.0028
     11 C         139.2745  139.8778  168.1683 C.ar    1  UNL1        0.0369
     12 C         139.9258  141.0626  167.5187 C.ar    1  UNL1        0.1383
     13 C         139.6137  141.4010  166.0911 C.ar    1  UNL1        0.0327
     14 O         140.8893  141.9091  168.2967 O.3     1  UNL1       -0.4740
     15 C         140.7249  142.0620  169.7798 C.3     1  UNL1        0.2246
     16 C         139.8490  142.8931  170.6699 C.3     1  UNL1        0.1882
     17 O         140.4924  142.2782  171.8772 O.3     1  UNL1       -0.3459
     18 C         141.3683  141.4470  170.9873 C.3     1  UNL1        0.1882
     19 C         138.0453  142.3120  163.4977 C.3     1  UNL1        0.0474
     20 O         138.5172  143.9073  161.5020 O.co2   1  UNL1       -0.5492
     21 C         139.0164  143.0719  162.6436 C.2     1  UNL1        0.0507
     22 O         140.4867  142.9965  162.9309 O.co2   1  UNL1       -0.5492
     23 C         142.7562  137.8679  160.7446 C.3     1  UNL1        0.0077
     24 C         144.0682  138.5245  161.0567 C.3     1  UNL1        0.0459
     25 C         144.1234  139.6658  162.0286 C.ar    1  UNL1        0.0603
     26 C         144.4807  139.4126  163.4632 C.ar    1  UNL1        0.0145
     27 C         144.5358  140.5538  164.4351 C.ar    1  UNL1       -0.0003
     28 C         144.2336  141.9483  163.9723 C.ar    1  UNL1        0.0092
     29 C         143.8763  142.2016  162.5377 C.ar    1  UNL1        0.1240
     30 N         143.8212  141.0603  161.5658 N.ar    1  UNL1       -0.2356
     31 N         143.5741  143.5960  162.0749 N.pl3   1  UNL1       -0.3184
     32 C         143.6293  144.7372  163.0468 C.3     1  UNL1        0.0885
     33 C         143.9866  144.4840  164.4814 C.3     1  UNL1        0.0260
     34 C         144.2888  143.0895  164.9442 C.3     1  UNL1        0.0309
     35 H         143.3396  143.7622  161.1333 H       1  UNL1        0.1482
@<TRIPOS>UNITY_ATOM_ATTR
20 1
charge -1
@<TRIPOS>BOND
     1    20    21   ar
     2    21    22   ar
     3    21    19    1
     4     7    19    1
     5     7     6    1
     6     6     1    1
     7     1     2    1
     8     2     3    1
     9     3     4    1
    10     4    23    1
    11    23    24    1
    12    24    25    1
    13    25    26   ar
    14    26    27   ar
    15    27    28   ar
    16    28    29   ar
    17    29    30   ar
    18    29    31    1
    19    31    32    1
    20    32    33    1
    21    33    34    1
    22     4     5    1
    23     7     8    1
    24     8     9   ar
    25     9    10   ar
    26    10    11   ar
    27    11    12   ar
    28    12    14    1
    29    14    15    1
    30    15    16    1
    31    16    17    1
    32    17    18    1
    33    12    13   ar
    34     5     1    1
    35    13     8   ar
    36    30    25   ar
    37    18    15    1
    38    34    28    1
    39    31    35    1
@<TRIPOS>MOLECULE
*****
 35 39 0 0 0
SMALL
GASTEIGER

@<TRIPOS>ATOM
      1 N         141.0447  141.0766  167.2826 N.3     1  UNL1       -0.2724
      2 C         140.3353  140.7951  168.5740 C.3     1  UNL1        0.0721
      3 C         139.1912  139.8700  168.2823 C.3     1  UNL1        0.0187
      4 C         139.1934  139.5797  166.8107 C.3     1  UNL1        0.0178
      5 C         140.3390  140.3254  166.1929 C.3     1  UNL1        0.0721
      6 C         142.2485  141.9549  167.1112 C.3     1  UNL1        0.0768
      7 C         142.8642  142.1271  165.7542 C.3     1  UNL1        0.0439
      8 C         142.3882  143.2240  164.8484 C.ar    1  UNL1       -0.0178
      9 C         143.3659  144.2196  164.2982 C.ar    1  UNL1       -0.0040
     10 C         142.8899  145.3164  163.3924 C.ar    1  UNL1        0.0028
     11 C         141.4362  145.4175  163.0368 C.ar    1  UNL1        0.0369
     12 C         140.4584  144.4219  163.5870 C.ar    1  UNL1        0.1383
     13 C         140.9345  143.3252  164.4928 C.ar    1  UNL1        0.0327
     14 O         139.0047  144.5231  163.2315 O.3     1  UNL1       -0.4740
     15 C         138.2589  143.3061  162.7705 C.3     1  UNL1        0.2246
     16 C         138.0637  142.6178  161.4521 C.3     1  UNL1        0.1882
     17 O         137.2042  141.5849  162.1186 O.3     1  UNL1       -0.3459
     18 C         137.3994  142.2731  163.4370 C.3     1  UNL1        0.1882
     19 C         143.9558  141.2025  165.3031 C.3     1  UNL1        0.0474
     20 O         143.6521  138.6827  164.7477 O.co2   1  UNL1       -0.5492
     21 C         143.6575  140.1178  164.3109 C.2     1  UNL1        0.0507
     22 O         143.3647  140.4680  162.8821 O.co2   1  UNL1       -0.5492
     23 C         138.2209  138.6984  166.0844 C.3     1  UNL1        0.0077
     24 C         138.7209  137.5476  165.2625 C.3     1  UNL1        0.0459
     25 C         139.2792  137.7915  163.8918 C.ar    1  UNL1        0.0603
     26 C         138.3882  138.3045  162.7994 C.ar    1  UNL1        0.0145
     27 C         138.9464  138.5484  161.4288 C.ar    1  UNL1       -0.0003
     28 C         140.3957  138.2794  161.1503 C.ar    1  UNL1        0.0092
     29 C         141.2866  137.7665  162.2426 C.ar    1  UNL1        0.1240
     30 N         140.7283  137.5225  163.6134 N.ar    1  UNL1       -0.2356
     31 N         142.7358  137.4975  161.9642 N.pl3   1  UNL1       -0.3184
     32 C         143.2940  137.7414  160.5936 C.3     1  UNL1        0.0885
     33 C         142.4031  138.2544  159.5013 C.3     1  UNL1        0.0260
     34 C         140.9539  138.5234  159.7796 C.3     1  UNL1        0.0309
     35 H         143.3205  137.1608  162.6812 H       1  UNL1        0.1482
@<TRIPOS>UNITY_ATOM_ATTR
20 1
charge -1
@<TRIPOS>BOND
     1    20    21   ar
     2    21    22   ar
     3    21    19    1
     4     7    19    1
     5     7     6    1
     6     6     1    1
     7     1     2    1
     8     2     3    1
     9     3     4    1
    10     4    23    1
    11    23    24    1
    12    24    25    1
    13    25    26   ar
    14    26    27   ar
    15    27    28   ar
    16    28    29   ar
    17    29    30   ar
    18    29    31    1
    19    31    32    1
    20    32    33    1
    21    33    34    1
    22     4     5    1
    23     7     8    1
    24     8     9   ar
    25     9    10   ar
    26    10    11   ar
    27    11    12   ar
    28    12    14    1
    29    14    15    1
    30    15    16    1
    31    16    17    1
    32    17    18    1
    33    12    13   ar
    34     5     1    1
    35    13     8   ar
    36    30    25   ar
    37    18    15    1
    38    34    28    1
    39    31    35    1
@<TRIPOS>MOLECULE
*****
 35 39 0 0 0
SMALL
GASTEIGER

@<TRIPOS>ATOM
      1 N         141.5948  142.6106  166.3686 N.3     1  UNL1       -0.2724
      2 C         141.2365  143.4039  165.1469 C.3     1  UNL1        0.0721
      3 C         142.4816  143.5852  164.3303 C.3     1  UNL1        0.0187
      4 C         143.6094  142.9040  165.0472 C.3     1  UNL1        0.0178
      5 C         143.0614  142.3017  166.3069 C.3     1  UNL1        0.0721
      6 C         140.6522  142.1987  167.4602 C.3     1  UNL1        0.0768
      7 C         140.1348  140.7917  167.5130 C.3     1  UNL1        0.0439
      8 C         139.7096  140.1011  166.2511 C.ar    1  UNL1       -0.0178
      9 C         140.2375  138.7343  165.9296 C.ar    1  UNL1       -0.0040
     10 C         139.8122  138.0438  164.6678 C.ar    1  UNL1        0.0028
     11 C         138.8591  138.7200  163.7274 C.ar    1  UNL1        0.0369
     12 C         138.3312  140.0867  164.0488 C.ar    1  UNL1        0.1383
     13 C         138.7564  140.7772  165.3107 C.ar    1  UNL1        0.0327
     14 O         137.3781  140.7629  163.1084 O.3     1  UNL1       -0.4740
     15 C         137.7180  142.1058  162.5333 C.3     1  UNL1        0.2246
     16 C         137.6750  143.5177  163.0382 C.3     1  UNL1        0.1882
     17 O         138.1988  144.0051  161.7199 O.3     1  UNL1       -0.3459
     18 C         138.2418  142.5933  161.2149 C.3     1  UNL1        0.1882
     19 C         140.0426  140.0753  168.8277 C.3     1  UNL1        0.0474
     20 O         139.3325  141.8858  170.5506 O.co2   1  UNL1       -0.5492
     21 C         139.0950  140.5636  169.8830 C.2     1  UNL1        0.0507
     22 O         137.9100  139.7297  170.2708 O.co2   1  UNL1       -0.5492
     23 C         145.0349  142.8369  164.5854 C.3     1  UNL1        0.0077
     24 C         145.6152  141.5307  164.1304 C.3     1  UNL1        0.0459
     25 C         144.7972  140.6009  163.2838 C.ar    1  UNL1        0.0603
     26 C         144.0302  139.4824  163.9243 C.ar    1  UNL1        0.0145
     27 C         143.2123  138.5527  163.0778 C.ar    1  UNL1       -0.0003
     28 C         143.1614  138.7416  161.5905 C.ar    1  UNL1        0.0092
     29 C         143.9285  139.8602  160.9499 C.ar    1  UNL1        0.1240
     30 N         144.7464  140.7899  161.7966 N.ar    1  UNL1       -0.2356
     31 N         143.8777  140.0491  159.4628 N.pl3   1  UNL1       -0.3184
     32 C         143.0598  139.1194  158.6162 C.3     1  UNL1        0.0885
     33 C         142.2927  138.0008  159.2568 C.3     1  UNL1        0.0260
     34 C         142.3435  137.8119  160.7440 C.3     1  UNL1        0.0309
     35 H         144.3811  140.7832  159.0423 H       1  UNL1        0.1482
@<TRIPOS>UNITY_ATOM_ATTR
20 1
charge -1
@<TRIPOS>BOND
     1    20    21   ar
     2    21    22   ar
     3    21    19    1
     4     7    19    1
     5     7     6    1
     6     6     1    1
     7     1     2    1
     8     2     3    1
     9     3     4    1
    10     4    23    1
    11    23    24    1
    12    24    25    1
    13    25    26   ar
    14    26    27   ar
    15    27    28   ar
    16    28    29   ar
    17    29    30   ar
    18    29    31    1
    19    31    32    1
    20    32    33    1
    21    33    34    1
    22     4     5    1
    23     7     8    1
    24     8     9   ar
    25     9    10   ar
    26    10    11   ar
    27    11    12   ar
    28    12    14    1
    29    14    15    1
    30    15    16    1
    31    16    17    1
    32    17    18    1
    33    12    13   ar
    34     5     1    1
    35    13     8   ar
    36    30    25   ar
    37    18    15    1
    38    34    28    1
    39    31    35    1
@<TRIPOS>MOLECULE
*****
 35 39 0 0 0
SMALL
GASTEIGER

@<TRIPOS>ATOM
      1 N         138.0909  140.4157  163.0131 N.3     1  UNL1       -0.2724
      2 C         138.1259  141.2039  161.7372 C.3     1  UNL1        0.0721
      3 C         137.8896  142.6458  162.0765 C.3     1  UNL1        0.0187
      4 C         137.7085  142.7488  163.5619 C.3     1  UNL1        0.0178
      5 C         137.8329  141.3706  164.1408 C.3     1  UNL1        0.0721
      6 C         138.2805  138.9331  163.1390 C.3     1  UNL1        0.0768
      7 C         139.2277  138.3825  164.1636 C.3     1  UNL1        0.0439
      8 C         140.7065  138.5697  163.9951 C.ar    1  UNL1       -0.0178
      9 C         141.6276  138.3501  165.1583 C.ar    1  UNL1       -0.0040
     10 C         143.1063  138.5373  164.9898 C.ar    1  UNL1        0.0028
     11 C         143.6639  138.9441  163.6580 C.ar    1  UNL1        0.0369
     12 C         142.7427  139.1636  162.4947 C.ar    1  UNL1        0.1383
     13 C         141.2640  138.9764  162.6632 C.ar    1  UNL1        0.0327
     14 O         143.3003  139.5704  161.1629 O.3     1  UNL1       -0.4740
     15 C         143.1014  140.9704  160.6626 C.3     1  UNL1        0.2246
     16 C         143.9532  141.9677  159.9346 C.3     1  UNL1        0.1882
     17 O         142.8202  142.9504  159.9550 O.3     1  UNL1       -0.3459
     18 C         141.9683  141.9532  160.6830 C.3     1  UNL1        0.1882
     19 C         138.6962  137.6447  165.3565 C.3     1  UNL1        0.0474
     20 O         138.8583  139.6375  167.0157 O.co2   1  UNL1       -0.5492
     21 C         138.1525  138.4068  166.5286 C.2     1  UNL1        0.0507
     22 O         136.9031  137.9381  167.2136 O.co2   1  UNL1       -0.5492
     23 C         137.4487  144.0088  164.3331 C.3     1  UNL1        0.0077
     24 C         138.5514  144.6420  165.1288 C.3     1  UNL1        0.0459
     25 C         139.9147  144.0166  165.1511 C.ar    1  UNL1        0.0603
     26 C         140.2770  143.0462  166.2361 C.ar    1  UNL1        0.0145
     27 C         141.6401  142.4208  166.2585 C.ar    1  UNL1       -0.0003
     28 C         142.6411  142.7657  165.1958 C.ar    1  UNL1        0.0092
     29 C         142.2788  143.7360  164.1109 C.ar    1  UNL1        0.1240
     30 N         140.9156  144.3615  164.0885 N.ar    1  UNL1       -0.2356
     31 N         143.2797  144.0809  163.0482 N.pl3   1  UNL1       -0.3184
     32 C         144.6429  143.4555  163.0706 C.3     1  UNL1        0.0885
     33 C         145.0052  142.4852  164.1556 C.3     1  UNL1        0.0260
     34 C         144.0043  142.1403  165.2182 C.3     1  UNL1        0.0309
     35 H         143.0420  144.7178  162.3361 H       1  UNL1        0.1482
@<TRIPOS>UNITY_ATOM_ATTR
20 1
charge -1
@<TRIPOS>BOND
     1    20    21   ar
     2    21    22   ar
     3    21    19    1
     4     7    19    1
     5     7     6    1
     6     6     1    1
     7     1     2    1
     8     2     3    1
     9     3     4    1
    10     4    23    1
    11    23    24    1
    12    24    25    1
    13    25    26   ar
    14    26    27   ar
    15    27    28   ar
    16    28    29   ar
    17    29    30   ar
    18    29    31    1
    19    31    32    1
    20    32    33    1
    21    33    34    1
    22     4     5    1
    23     7     8    1
    24     8     9   ar
    25     9    10   ar
    26    10    11   ar
    27    11    12   ar
    28    12    14    1
    29    14    15    1
    30    15    16    1
    31    16    17    1
    32    17    18    1
    33    12    13   ar
    34     5     1    1
    35    13     8   ar
    36    30    25   ar
    37    18    15    1
    38    34    28    1
    39    31    35    1
