@<TRIPOS>MOLECULE
*****
 33 37 0 0 0
SMALL
GASTEIGER

@<TRIPOS>ATOM
      1 N         141.8875  144.3794  161.1895 N.ar    1  UNL1       -0.1967
      2 N         143.1531  143.9359  161.8615 N.ar    1  UNL1       -0.1666
      3 C         142.8483  143.6927  163.3099 C.ar    1  UNL1        0.0849
      4 C         141.3942  143.9859  163.5331 C.ar    1  UNL1        0.0334
      5 C         140.5342  143.9213  164.7603 C.ar    1  UNL1        0.0027
      6 C         139.0804  144.2811  164.6771 C.ar    1  UNL1        0.0001
      7 C         138.4865  144.7055  163.3666 C.ar    1  UNL1        0.0015
      8 C         139.3466  144.7701  162.1394 C.ar    1  UNL1        0.0193
      9 C         140.8005  144.4103  162.2227 C.ar    1  UNL1        0.0870
     10 C         140.8950  146.3169  154.0398 C.3     1  UNL1        0.0137
     11 C         141.0469  145.9660  155.4903 C.3     1  UNL1        0.0932
     12 C         142.1623  145.0912  154.9998 C.3     1  UNL1        0.0137
     13 C         139.8998  146.9141  155.6776 C.2     1  UNL1        0.2302
     14 O         139.1995  147.6762  154.5919 O.2     1  UNL1       -0.2744
     15 N         139.5759  146.9663  157.1413 N.am    1  UNL1       -0.2692
     16 C         140.5228  146.0504  157.8586 C.ar    1  UNL1        0.1363
     17 N         140.6746  145.6995  159.3090 N.ar    1  UNL1       -0.1951
     18 C         141.7356  144.7303  159.7391 C.ar    1  UNL1        0.2553
     19 N         142.6448  144.1121  158.7187 N.ar    1  UNL1       -0.1957
     20 C         142.4930  144.4630  157.2683 C.ar    1  UNL1        0.1276
     21 N         143.4022  143.8448  156.2479 N.pl3   1  UNL1       -0.3427
     22 C         141.4320  145.4321  156.8382 C.ar    1  UNL1        0.0484
     23 H         138.8663  147.5067  157.5580 H       1  UNL1        0.1563
     24 H         144.0985  143.2087  156.5301 H       1  UNL1        0.1437
     25 H         143.3025  144.0751  155.2959 H       1  UNL1        0.1437
     26 C         143.8258  143.2364  164.3521 C.3     1  UNL1        0.0762
     27 C         143.9096  141.7839  164.7170 C.ar    1  UNL1        0.0113
     28 C         142.9615  141.2084  165.7269 C.ar    1  UNL1       -0.0017
     29 C         143.0453  139.7559  166.0918 C.ar    1  UNL1       -0.0002
     30 C         144.0772  138.8790  165.4468 C.ar    1  UNL1        0.0023
     31 C         145.0253  139.4544  164.4370 C.ar    1  UNL1        0.0293
     32 C         144.9415  140.9070  164.0721 C.ar    1  UNL1        0.1365
     33 F         145.8897  141.4825  163.0622 F       1  UNL1       -0.2045
@<TRIPOS>BOND
     1    10    11    1
     2    11    12    1
     3    11    13    1
     4    13    14    2
     5    13    15   am
     6    15    16    1
     7    16    17   ar
     8    17    18   ar
     9    18     1    1
    10     1     2   ar
    11     2     3   ar
    12     3    26    1
    13    26    27    1
    14    27    28   ar
    15    28    29   ar
    16    29    30   ar
    17    30    31   ar
    18    31    32   ar
    19    32    33    1
    20     3     4   ar
    21     4     5   ar
    22     5     6   ar
    23     6     7   ar
    24     7     8   ar
    25     8     9   ar
    26    18    19   ar
    27    19    20   ar
    28    20    21    1
    29    20    22   ar
    30    22    11    1
    31    22    16   ar
    32     9     1   ar
    33    32    27   ar
    34     9     4   ar
    35    15    23    1
    36    21    24    1
    37    21    25    1
@<TRIPOS>MOLECULE
*****
 33 37 0 0 0
SMALL
GASTEIGER

@<TRIPOS>ATOM
      1 N         142.8762  138.8024  160.6837 N.ar    1  UNL1       -0.1967
      2 N         143.9715  139.8154  160.8392 N.ar    1  UNL1       -0.1666
      3 C         144.1860  140.0448  162.3060 C.ar    1  UNL1        0.0849
      4 C         143.2232  139.1735  163.0570 C.ar    1  UNL1        0.0334
      5 C         142.9791  138.9800  164.5243 C.ar    1  UNL1        0.0027
      6 C         141.9255  138.0189  164.9889 C.ar    1  UNL1        0.0001
      7 C         141.1160  137.2510  163.9863 C.ar    1  UNL1        0.0015
      8 C         141.3602  137.4444  162.5190 C.ar    1  UNL1        0.0193
      9 C         142.4138  138.4057  162.0544 C.ar    1  UNL1        0.0870
     10 C         139.9306  136.3484  154.2683 C.3     1  UNL1        0.0137
     11 C         140.4689  136.8726  155.5665 C.3     1  UNL1        0.0932
     12 C         141.6852  136.0732  155.2039 C.3     1  UNL1        0.0137
     13 C         139.1401  137.5624  155.6577 C.2     1  UNL1        0.2302
     14 O         138.0341  137.4828  154.6475 O.2     1  UNL1       -0.2744
     15 N         139.1114  138.3459  156.9365 N.am    1  UNL1       -0.2692
     16 C         140.4225  138.1403  157.6357 C.ar    1  UNL1        0.1363
     17 N         140.9607  138.6645  158.9339 N.ar    1  UNL1       -0.1951
     18 C         142.3379  138.2782  159.3854 C.ar    1  UNL1        0.2553
     19 N         143.1769  137.3676  158.5387 N.ar    1  UNL1       -0.1957
     20 C         142.6387  136.8434  157.2405 C.ar    1  UNL1        0.1276
     21 N         143.4777  135.9328  156.3938 N.pl3   1  UNL1       -0.3427
     22 C         141.2615  137.2297  156.7890 C.ar    1  UNL1        0.0484
     23 H         138.3634  138.8981  157.2602 H       1  UNL1        0.1563
     24 H         144.3817  135.6792  156.6901 H       1  UNL1        0.1437
     25 H         143.1244  135.5887  155.5417 H       1  UNL1        0.1437
     26 C         145.1874  140.9810  162.9148 C.3     1  UNL1        0.0762
     27 C         144.7559  142.3386  163.3845 C.ar    1  UNL1        0.0113
     28 C         144.7140  142.6462  164.8521 C.ar    1  UNL1       -0.0017
     29 C         144.2825  144.0038  165.3218 C.ar    1  UNL1       -0.0002
     30 C         143.8929  145.0538  164.3240 C.ar    1  UNL1        0.0023
     31 C         143.9347  144.7462  162.8565 C.ar    1  UNL1        0.0293
     32 C         144.3662  143.3886  162.3868 C.ar    1  UNL1        0.1365
     33 F         144.4081  143.0810  160.9192 F       1  UNL1       -0.2045
@<TRIPOS>BOND
     1    10    11    1
     2    11    12    1
     3    11    13    1
     4    13    14    2
     5    13    15   am
     6    15    16    1
     7    16    17   ar
     8    17    18   ar
     9    18     1    1
    10     1     2   ar
    11     2     3   ar
    12     3    26    1
    13    26    27    1
    14    27    28   ar
    15    28    29   ar
    16    29    30   ar
    17    30    31   ar
    18    31    32   ar
    19    32    33    1
    20     3     4   ar
    21     4     5   ar
    22     5     6   ar
    23     6     7   ar
    24     7     8   ar
    25     8     9   ar
    26    18    19   ar
    27    19    20   ar
    28    20    21    1
    29    20    22   ar
    30    22    11    1
    31    22    16   ar
    32     9     1   ar
    33    32    27   ar
    34     9     4   ar
    35    15    23    1
    36    21    24    1
    37    21    25    1
@<TRIPOS>MOLECULE
*****
 33 37 0 0 0
SMALL
GASTEIGER

@<TRIPOS>ATOM
      1 N         142.9191  138.7875  160.6873 N.ar    1  UNL1       -0.1967
      2 N         144.0099  139.8049  160.8452 N.ar    1  UNL1       -0.1666
      3 C         144.2146  140.0412  162.3123 C.ar    1  UNL1        0.0849
      4 C         143.2501  139.1698  163.0611 C.ar    1  UNL1        0.0334
      5 C         142.9975  138.9818  164.5276 C.ar    1  UNL1        0.0027
      6 C         141.9444  138.0190  164.9899 C.ar    1  UNL1        0.0001
      7 C         141.1437  137.2441  163.9856 C.ar    1  UNL1        0.0015
      8 C         141.3963  137.4321  162.5190 C.ar    1  UNL1        0.0193
      9 C         142.4495  138.3950  162.0568 C.ar    1  UNL1        0.0870
     10 C         140.5517  135.9797  154.1782 C.3     1  UNL1        0.0137
     11 C         141.0802  136.5113  155.4775 C.3     1  UNL1        0.0932
     12 C         139.7644  137.2289  155.5381 C.3     1  UNL1        0.0137
     13 C         142.2854  135.6825  155.1452 C.2     1  UNL1        0.2302
     14 O         142.4615  134.8334  153.9213 O.2     1  UNL1       -0.2744
     15 N         143.2838  135.8519  156.2519 N.am    1  UNL1       -0.2692
     16 C         142.6955  136.7853  157.2681 C.ar    1  UNL1        0.1363
     17 N         143.2240  137.3168  158.5673 N.ar    1  UNL1       -0.1951
     18 C         142.3906  138.2559  159.3880 C.ar    1  UNL1        0.2553
     19 N         141.0286  138.6634  158.9094 N.ar    1  UNL1       -0.1957
     20 C         140.5001  138.1319  157.6101 C.ar    1  UNL1        0.1276
     21 N         139.1382  138.5394  157.1315 N.pl3   1  UNL1       -0.3427
     22 C         141.3336  137.1928  156.7895 C.ar    1  UNL1        0.0484
     23 H         144.1696  135.4253  156.3024 H       1  UNL1        0.1563
     24 H         138.5912  139.1558  157.6701 H       1  UNL1        0.1437
     25 H         138.7913  138.1906  156.2787 H       1  UNL1        0.1437
     26 C         145.2090  140.9834  162.9233 C.3     1  UNL1        0.0762
     27 C         144.7686  142.3391  163.3904 C.ar    1  UNL1        0.0113
     28 C         144.7272  142.6500  164.8573 C.ar    1  UNL1       -0.0017
     29 C         144.2869  144.0057  165.3244 C.ar    1  UNL1       -0.0002
     30 C         143.8880  145.0504  164.3247 C.ar    1  UNL1        0.0023
     31 C         143.9295  144.7395  162.8579 C.ar    1  UNL1        0.0293
     32 C         144.3698  143.3839  162.3908 C.ar    1  UNL1        0.1365
     33 F         144.4113  143.0729  160.9239 F       1  UNL1       -0.2045
@<TRIPOS>BOND
     1    10    11    1
     2    11    12    1
     3    11    13    1
     4    13    14    2
     5    13    15   am
     6    15    16    1
     7    16    17   ar
     8    17    18   ar
     9    18     1    1
    10     1     2   ar
    11     2     3   ar
    12     3    26    1
    13    26    27    1
    14    27    28   ar
    15    28    29   ar
    16    29    30   ar
    17    30    31   ar
    18    31    32   ar
    19    32    33    1
    20     3     4   ar
    21     4     5   ar
    22     5     6   ar
    23     6     7   ar
    24     7     8   ar
    25     8     9   ar
    26    18    19   ar
    27    19    20   ar
    28    20    21    1
    29    20    22   ar
    30    22    11    1
    31    22    16   ar
    32     9     1   ar
    33    32    27   ar
    34     9     4   ar
    35    15    23    1
    36    21    24    1
    37    21    25    1
@<TRIPOS>MOLECULE
*****
 33 37 0 0 0
SMALL
GASTEIGER

@<TRIPOS>ATOM
      1 N         141.1377  143.8663  161.9154 N.ar    1  UNL1       -0.1967
      2 N         142.4252  143.4507  162.5633 N.ar    1  UNL1       -0.1666
      3 C         142.1757  143.2981  164.0345 C.ar    1  UNL1        0.0849
      4 C         140.7340  143.6194  164.2958 C.ar    1  UNL1        0.0334
      5 C         139.9224  143.6376  165.5572 C.ar    1  UNL1        0.0027
      6 C         138.4695  144.0070  165.5089 C.ar    1  UNL1        0.0001
      7 C         137.8279  144.3582  164.1992 C.ar    1  UNL1        0.0015
      8 C         138.6395  144.3400  162.9379 C.ar    1  UNL1        0.0193
      9 C         140.0925  143.9706  162.9862 C.ar    1  UNL1        0.0870
     10 C         139.8746  144.9830  154.6343 C.3     1  UNL1        0.0137
     11 C         140.0806  144.7181  156.0963 C.3     1  UNL1        0.0932
     12 C         141.1962  145.7113  155.9582 C.3     1  UNL1        0.0137
     13 C         138.9219  143.7804  155.9288 C.2     1  UNL1        0.2302
     14 O         138.1719  143.5243  154.6552 O.2     1  UNL1       -0.2744
     15 N         138.6451  143.1436  157.2584 N.am    1  UNL1       -0.2692
     16 C         139.6326  143.6878  158.2476 C.ar    1  UNL1        0.1363
     17 N         139.8386  143.4229  159.7096 N.ar    1  UNL1       -0.1951
     18 C         140.9317  144.1312  160.4534 C.ar    1  UNL1        0.2553
     19 N         141.8190  145.1043  159.7352 N.ar    1  UNL1       -0.1957
     20 C         141.6130  145.3692  158.2732 C.ar    1  UNL1        0.1276
     21 N         142.5002  146.3424  157.5550 N.pl3   1  UNL1       -0.3427
     22 C         140.5198  144.6609  157.5294 C.ar    1  UNL1        0.0484
     23 H         137.9391  142.4842  157.4484 H       1  UNL1        0.1563
     24 H         143.2177  146.8073  158.0432 H       1  UNL1        0.1437
     25 H         142.3650  146.5162  156.5955 H       1  UNL1        0.1437
     26 C         143.1897  142.8950  165.0636 C.3     1  UNL1        0.0762
     27 C         143.2031  141.4919  165.5940 C.ar    1  UNL1        0.0113
     28 C         143.7833  140.3830  164.7671 C.ar    1  UNL1       -0.0017
     29 C         143.7966  138.9800  165.2975 C.ar    1  UNL1       -0.0002
     30 C         143.2297  138.6859  166.6547 C.ar    1  UNL1        0.0023
     31 C         142.6495  139.7948  167.4816 C.ar    1  UNL1        0.0293
     32 C         142.6362  141.1978  166.9512 C.ar    1  UNL1        0.1365
     33 F         142.0559  142.3067  167.7780 F       1  UNL1       -0.2045
@<TRIPOS>BOND
     1    10    11    1
     2    11    12    1
     3    11    13    1
     4    13    14    2
     5    13    15   am
     6    15    16    1
     7    16    17   ar
     8    17    18   ar
     9    18     1    1
    10     1     2   ar
    11     2     3   ar
    12     3    26    1
    13    26    27    1
    14    27    28   ar
    15    28    29   ar
    16    29    30   ar
    17    30    31   ar
    18    31    32   ar
    19    32    33    1
    20     3     4   ar
    21     4     5   ar
    22     5     6   ar
    23     6     7   ar
    24     7     8   ar
    25     8     9   ar
    26    18    19   ar
    27    19    20   ar
    28    20    21    1
    29    20    22   ar
    30    22    11    1
    31    22    16   ar
    32     9     1   ar
    33    32    27   ar
    34     9     4   ar
    35    15    23    1
    36    21    24    1
    37    21    25    1
@<TRIPOS>MOLECULE
*****
 33 37 0 0 0
SMALL
GASTEIGER

@<TRIPOS>ATOM
      1 N         139.8880  142.4812  163.9204 N.ar    1  UNL1       -0.1967
      2 N         140.1954  143.3387  165.1122 N.ar    1  UNL1       -0.1666
      3 C         139.9835  142.5116  166.3454 C.ar    1  UNL1        0.0849
      4 C         139.5452  141.1428  165.9158 C.ar    1  UNL1        0.0334
      5 C         139.1921  139.9111  166.6957 C.ar    1  UNL1        0.0027
      6 C         138.7801  138.6608  165.9769 C.ar    1  UNL1        0.0001
      7 C         138.7210  138.6420  164.4782 C.ar    1  UNL1        0.0015
      8 C         139.0741  139.8737  163.6983 C.ar    1  UNL1        0.0193
      9 C         139.4861  141.1241  164.4171 C.ar    1  UNL1        0.0870
     10 C         140.5147  144.7987  156.8427 C.3     1  UNL1        0.0137
     11 C         140.4344  144.3736  158.2790 C.3     1  UNL1        0.0932
     12 C         139.3577  143.4545  157.7831 C.3     1  UNL1        0.0137
     13 C         141.5278  145.3816  158.4747 C.2     1  UNL1        0.2302
     14 O         142.1429  146.2342  157.4047 O.2     1  UNL1       -0.2744
     15 N         141.8981  145.3874  159.9282 N.am    1  UNL1       -0.2692
     16 C         141.0336  144.3830  160.6309 C.ar    1  UNL1        0.1363
     17 N         140.9533  143.9579  162.0671 N.ar    1  UNL1       -0.1951
     18 C         139.9683  142.9063  162.4841 C.ar    1  UNL1        0.2553
     19 N         139.0636  142.2798  161.4648 N.ar    1  UNL1       -0.1957
     20 C         139.1439  142.7048  160.0286 C.ar    1  UNL1        0.1276
     21 N         138.2392  142.0783  159.0093 N.pl3   1  UNL1       -0.3427
     22 C         140.1289  143.7564  159.6116 C.ar    1  UNL1        0.0484
     23 H         142.5876  145.9514  160.3475 H       1  UNL1        0.1563
     24 H         137.5927  141.3880  159.2829 H       1  UNL1        0.1437
     25 H         138.2920  142.3572  158.0666 H       1  UNL1        0.1437
     26 C         140.1762  142.9722  167.7599 C.3     1  UNL1        0.0762
     27 C         141.0425  142.1813  168.6947 C.ar    1  UNL1        0.0113
     28 C         142.5361  142.2783  168.5961 C.ar    1  UNL1       -0.0017
     29 C         143.4024  141.4875  169.5309 C.ar    1  UNL1       -0.0002
     30 C         142.7751  140.5996  170.5645 C.ar    1  UNL1        0.0023
     31 C         141.2816  140.5026  170.6631 C.ar    1  UNL1        0.0293
     32 C         140.4152  141.2935  169.7283 C.ar    1  UNL1        0.1365
     33 F         138.9216  141.1965  169.8270 F       1  UNL1       -0.2045
@<TRIPOS>BOND
     1    10    11    1
     2    11    12    1
     3    11    13    1
     4    13    14    2
     5    13    15   am
     6    15    16    1
     7    16    17   ar
     8    17    18   ar
     9    18     1    1
    10     1     2   ar
    11     2     3   ar
    12     3    26    1
    13    26    27    1
    14    27    28   ar
    15    28    29   ar
    16    29    30   ar
    17    30    31   ar
    18    31    32   ar
    19    32    33    1
    20     3     4   ar
    21     4     5   ar
    22     5     6   ar
    23     6     7   ar
    24     7     8   ar
    25     8     9   ar
    26    18    19   ar
    27    19    20   ar
    28    20    21    1
    29    20    22   ar
    30    22    11    1
    31    22    16   ar
    32     9     1   ar
    33    32    27   ar
    34     9     4   ar
    35    15    23    1
    36    21    24    1
    37    21    25    1
@<TRIPOS>MOLECULE
*****
 33 37 0 0 0
SMALL
GASTEIGER

@<TRIPOS>ATOM
      1 N         141.8299  142.7156  162.9121 N.ar    1  UNL1       -0.1967
      2 N         142.5677  142.3142  164.1550 N.ar    1  UNL1       -0.1666
      3 C         141.7223  142.6867  165.3366 C.ar    1  UNL1        0.0849
      4 C         140.4619  143.3184  164.8241 C.ar    1  UNL1        0.0334
      5 C         139.2623  143.8796  165.5283 C.ar    1  UNL1        0.0027
      6 C         138.1293  144.4586  164.7341 C.ar    1  UNL1        0.0001
      7 C         138.1958  144.4765  163.2356 C.ar    1  UNL1        0.0015
      8 C         139.3954  143.9153  162.5315 C.ar    1  UNL1        0.0193
      9 C         140.5285  143.3362  163.3257 C.ar    1  UNL1        0.0870
     10 C         144.2799  141.4880  155.9588 C.3     1  UNL1        0.0137
     11 C         143.8003  141.6745  157.3679 C.3     1  UNL1        0.0932
     12 C         143.5500  143.0868  156.9289 C.3     1  UNL1        0.0137
     13 C         144.1509  140.2232  157.5123 C.2     1  UNL1        0.2302
     14 O         144.7172  139.3419  156.4387 O.2     1  UNL1       -0.2744
     15 N         143.8357  139.8080  158.9188 N.am    1  UNL1       -0.2692
     16 C         143.2903  141.0027  159.6436 C.ar    1  UNL1        0.1363
     17 N         142.8108  141.1891  161.0526 N.ar    1  UNL1       -0.1951
     18 C         142.3095  142.5291  161.5031 C.ar    1  UNL1        0.2553
     19 N         142.2876  143.6827  160.5446 N.ar    1  UNL1       -0.1957
     20 C         142.7671  143.4963  159.1356 C.ar    1  UNL1        0.1276
     21 N         142.7453  144.6499  158.1771 N.pl3   1  UNL1       -0.3427
     22 C         143.2685  142.1563  158.6851 C.ar    1  UNL1        0.0484
     23 H         143.9642  138.9092  159.2993 H       1  UNL1        0.1563
     24 H         142.4162  145.5294  158.4727 H       1  UNL1        0.1437
     25 H         143.0600  144.5275  157.2523 H       1  UNL1        0.1437
     26 C         142.0751  142.4663  166.7778 C.3     1  UNL1        0.0762
     27 C         141.1004  141.7865  167.6931 C.ar    1  UNL1        0.0113
     28 C         140.3937  140.5415  167.2451 C.ar    1  UNL1       -0.0017
     29 C         139.4190  139.8619  168.1605 C.ar    1  UNL1       -0.0002
     30 C         139.1509  140.4272  169.5237 C.ar    1  UNL1        0.0023
     31 C         139.8574  141.6721  169.9716 C.ar    1  UNL1        0.0293
     32 C         140.8322  142.3519  169.0563 C.ar    1  UNL1        0.1365
     33 F         141.5388  143.5969  169.5043 F       1  UNL1       -0.2045
@<TRIPOS>BOND
     1    10    11    1
     2    11    12    1
     3    11    13    1
     4    13    14    2
     5    13    15   am
     6    15    16    1
     7    16    17   ar
     8    17    18   ar
     9    18     1    1
    10     1     2   ar
    11     2     3   ar
    12     3    26    1
    13    26    27    1
    14    27    28   ar
    15    28    29   ar
    16    29    30   ar
    17    30    31   ar
    18    31    32   ar
    19    32    33    1
    20     3     4   ar
    21     4     5   ar
    22     5     6   ar
    23     6     7   ar
    24     7     8   ar
    25     8     9   ar
    26    18    19   ar
    27    19    20   ar
    28    20    21    1
    29    20    22   ar
    30    22    11    1
    31    22    16   ar
    32     9     1   ar
    33    32    27   ar
    34     9     4   ar
    35    15    23    1
    36    21    24    1
    37    21    25    1
@<TRIPOS>MOLECULE
*****
 33 37 0 0 0
SMALL
GASTEIGER

@<TRIPOS>ATOM
      1 N         140.4163  140.7238  163.5582 N.ar    1  UNL1       -0.1967
      2 N         140.4797  140.0313  164.8872 N.ar    1  UNL1       -0.1666
      3 C         140.1339  141.0329  165.9489 C.ar    1  UNL1        0.0849
      4 C         139.8567  142.3446  165.2759 C.ar    1  UNL1        0.0334
      5 C         139.4679  143.6882  165.8176 C.ar    1  UNL1        0.0027
      6 C         139.2536  144.8407  164.8819 C.ar    1  UNL1        0.0001
      7 C         139.4281  144.6497  163.4043 C.ar    1  UNL1        0.0015
      8 C         139.8169  143.3061  162.8626 C.ar    1  UNL1        0.0193
      9 C         140.0312  142.1535  163.7984 C.ar    1  UNL1        0.0870
     10 C         141.4765  137.6286  156.8386 C.3     1  UNL1        0.0137
     11 C         141.2029  138.2557  158.1735 C.3     1  UNL1        0.0932
     12 C         142.6748  138.0633  158.3894 C.3     1  UNL1        0.0137
     13 C         139.7883  138.3170  157.6786 C.2     1  UNL1        0.2302
     14 O         139.2997  137.8377  156.3438 O.2     1  UNL1       -0.2744
     15 N         138.9481  138.9418  158.7527 N.am    1  UNL1       -0.2692
     16 C         139.8435  139.2666  159.9115 C.ar    1  UNL1        0.1363
     17 N         139.5699  139.8937  161.2463 N.ar    1  UNL1       -0.1951
     18 C         140.6898  140.0967  162.2233 C.ar    1  UNL1        0.2553
     19 N         142.0834  139.6727  161.8653 N.ar    1  UNL1       -0.1957
     20 C         142.3570  139.0456  160.5305 C.ar    1  UNL1        0.1276
     21 N         143.7506  138.6216  160.1725 N.pl3   1  UNL1       -0.3427
     22 C         141.2371  138.8426  159.5536 C.ar    1  UNL1        0.0484
     23 H         137.9791  139.1093  158.7054 H       1  UNL1        0.1563
     24 H         144.4857  138.7548  160.8137 H       1  UNL1        0.1437
     25 H         143.9302  138.2100  159.2964 H       1  UNL1        0.1437
     26 C         140.0755  140.7693  167.4244 C.3     1  UNL1        0.0762
     27 C         140.9912  141.5079  168.3550 C.ar    1  UNL1        0.0113
     28 C         140.4856  142.6963  169.1181 C.ar    1  UNL1       -0.0017
     29 C         141.4013  143.4348  170.0487 C.ar    1  UNL1       -0.0002
     30 C         142.8224  142.9851  170.2162 C.ar    1  UNL1        0.0023
     31 C         143.3279  141.7968  169.4531 C.ar    1  UNL1        0.0293
     32 C         142.4123  141.0582  168.5225 C.ar    1  UNL1        0.1365
     33 F         142.9178  139.8698  167.7593 F       1  UNL1       -0.2045
@<TRIPOS>BOND
     1    10    11    1
     2    11    12    1
     3    11    13    1
     4    13    14    2
     5    13    15   am
     6    15    16    1
     7    16    17   ar
     8    17    18   ar
     9    18     1    1
    10     1     2   ar
    11     2     3   ar
    12     3    26    1
    13    26    27    1
    14    27    28   ar
    15    28    29   ar
    16    29    30   ar
    17    30    31   ar
    18    31    32   ar
    19    32    33    1
    20     3     4   ar
    21     4     5   ar
    22     5     6   ar
    23     6     7   ar
    24     7     8   ar
    25     8     9   ar
    26    18    19   ar
    27    19    20   ar
    28    20    21    1
    29    20    22   ar
    30    22    11    1
    31    22    16   ar
    32     9     1   ar
    33    32    27   ar
    34     9     4   ar
    35    15    23    1
    36    21    24    1
    37    21    25    1
@<TRIPOS>MOLECULE
*****
 33 37 0 0 0
SMALL
GASTEIGER

@<TRIPOS>ATOM
      1 N         140.3005  140.2385  163.4332 N.ar    1  UNL1       -0.1967
      2 N         140.6702  141.5928  163.9614 N.ar    1  UNL1       -0.1666
      3 C         140.1560  141.6986  165.3666 C.ar    1  UNL1        0.0849
      4 C         139.4684  140.4096  165.7068 C.ar    1  UNL1        0.0334
      5 C         138.7726  139.9409  166.9502 C.ar    1  UNL1        0.0027
      6 C         138.1660  138.5700  166.9988 C.ar    1  UNL1        0.0001
      7 C         138.2553  137.6675  165.8039 C.ar    1  UNL1        0.0015
      8 C         138.9512  138.1362  164.5604 C.ar    1  UNL1        0.0193
      9 C         139.5577  139.5072  164.5119 C.ar    1  UNL1        0.0870
     10 C         141.5846  137.6482  156.5413 C.3     1  UNL1        0.0137
     11 C         141.2673  138.1782  157.9082 C.3     1  UNL1        0.0932
     12 C         142.7140  137.8926  158.1828 C.3     1  UNL1        0.0137
     13 C         139.8870  138.3531  157.3479 C.2     1  UNL1        0.2302
     14 O         139.4511  138.0098  155.9543 O.2     1  UNL1       -0.2744
     15 N         139.0190  138.9314  158.4259 N.am    1  UNL1       -0.2692
     16 C         139.8629  139.1140  159.6525 C.ar    1  UNL1        0.1363
     17 N         139.5455  139.6440  161.0194 N.ar    1  UNL1       -0.1951
     18 C         140.6178  139.7085  162.0663 C.ar    1  UNL1        0.2553
     19 N         142.0074  139.2430  161.7463 N.ar    1  UNL1       -0.1957
     20 C         142.3247  138.7130  160.3795 C.ar    1  UNL1        0.1276
     21 N         143.7143  138.2475  160.0595 N.pl3   1  UNL1       -0.3427
     22 C         141.2525  138.6485  159.3326 C.ar    1  UNL1        0.0484
     23 H         138.0632  139.1523  158.3430 H       1  UNL1        0.1563
     24 H         144.4181  138.2898  160.7467 H       1  UNL1        0.1437
     25 H         143.9226  137.8996  159.1624 H       1  UNL1        0.1437
     26 C         140.3034  142.8851  166.2724 C.3     1  UNL1        0.0762
     27 C         141.0900  142.7646  167.5440 C.ar    1  UNL1        0.0113
     28 C         140.4548  143.1206  168.8554 C.ar    1  UNL1       -0.0017
     29 C         141.2414  143.0001  170.1268 C.ar    1  UNL1       -0.0002
     30 C         142.6631  142.5238  170.0870 C.ar    1  UNL1        0.0023
     31 C         143.2983  142.1678  168.7756 C.ar    1  UNL1        0.0293
     32 C         142.5118  142.2883  167.5041 C.ar    1  UNL1        0.1365
     33 F         143.1470  141.9323  166.1926 F       1  UNL1       -0.2045
@<TRIPOS>BOND
     1    10    11    1
     2    11    12    1
     3    11    13    1
     4    13    14    2
     5    13    15   am
     6    15    16    1
     7    16    17   ar
     8    17    18   ar
     9    18     1    1
    10     1     2   ar
    11     2     3   ar
    12     3    26    1
    13    26    27    1
    14    27    28   ar
    15    28    29   ar
    16    29    30   ar
    17    30    31   ar
    18    31    32   ar
    19    32    33    1
    20     3     4   ar
    21     4     5   ar
    22     5     6   ar
    23     6     7   ar
    24     7     8   ar
    25     8     9   ar
    26    18    19   ar
    27    19    20   ar
    28    20    21    1
    29    20    22   ar
    30    22    11    1
    31    22    16   ar
    32     9     1   ar
    33    32    27   ar
    34     9     4   ar
    35    15    23    1
    36    21    24    1
    37    21    25    1
@<TRIPOS>MOLECULE
*****
 33 37 0 0 0
SMALL
GASTEIGER

@<TRIPOS>ATOM
      1 N         140.7120  141.2392  163.0185 N.ar    1  UNL1       -0.1967
      2 N         141.5945  140.9803  164.2036 N.ar    1  UNL1       -0.1666
      3 C         141.1948  141.9284  165.2950 C.ar    1  UNL1        0.0849
      4 C         140.0654  142.7733  164.7846 C.ar    1  UNL1        0.0334
      5 C         139.2701  143.8755  165.4191 C.ar    1  UNL1        0.0027
      6 C         138.1765  144.5517  164.6467 C.ar    1  UNL1        0.0001
      7 C         137.8780  144.1258  163.2397 C.ar    1  UNL1        0.0015
      8 C         138.6733  143.0236  162.6052 C.ar    1  UNL1        0.0193
      9 C         139.7670  142.3474  163.3776 C.ar    1  UNL1        0.0870
     10 C         141.2775  137.5756  156.5289 C.3     1  UNL1        0.0137
     11 C         141.2243  138.2980  157.8425 C.3     1  UNL1        0.0932
     12 C         139.7924  138.5445  157.4698 C.3     1  UNL1        0.0137
     13 C         142.6673  137.9005  157.9405 C.2     1  UNL1        0.2302
     14 O         143.4361  137.1130  156.9213 O.2     1  UNL1       -0.2744
     15 N         143.2066  138.4288  159.2366 N.am    1  UNL1       -0.2692
     16 C         142.0968  139.1528  159.9397 C.ar    1  UNL1        0.1363
     17 N         142.0436  139.8752  161.2532 N.ar    1  UNL1       -0.1951
     18 C         140.7653  140.5168  161.7050 C.ar    1  UNL1        0.2553
     19 N         139.5401  140.4359  160.8433 N.ar    1  UNL1       -0.1957
     20 C         139.5933  139.7135  159.5298 C.ar    1  UNL1        0.1276
     21 N         138.3682  139.6327  158.6682 N.pl3   1  UNL1       -0.3427
     22 C         140.8717  139.0720  159.0780 C.ar    1  UNL1        0.0484
     23 H         144.1272  138.3196  159.5678 H       1  UNL1        0.1563
     24 H         137.5291  140.0538  158.9647 H       1  UNL1        0.1437
     25 H         138.4031  139.1585  157.8061 H       1  UNL1        0.1437
     26 C         141.8156  142.0163  166.6577 C.3     1  UNL1        0.0762
     27 C         140.9675  141.8339  167.8814 C.ar    1  UNL1        0.0113
     28 C         140.8810  142.9280  168.9039 C.ar    1  UNL1       -0.0017
     29 C         140.0329  142.7455  170.1275 C.ar    1  UNL1       -0.0002
     30 C         139.2713  141.4690  170.3287 C.ar    1  UNL1        0.0023
     31 C         139.3577  140.3750  169.3062 C.ar    1  UNL1        0.0293
     32 C         140.2059  140.5574  168.0825 C.ar    1  UNL1        0.1365
     33 F         140.2923  139.4633  167.0600 F       1  UNL1       -0.2045
@<TRIPOS>BOND
     1    10    11    1
     2    11    12    1
     3    11    13    1
     4    13    14    2
     5    13    15   am
     6    15    16    1
     7    16    17   ar
     8    17    18   ar
     9    18     1    1
    10     1     2   ar
    11     2     3   ar
    12     3    26    1
    13    26    27    1
    14    27    28   ar
    15    28    29   ar
    16    29    30   ar
    17    30    31   ar
    18    31    32   ar
    19    32    33    1
    20     3     4   ar
    21     4     5   ar
    22     5     6   ar
    23     6     7   ar
    24     7     8   ar
    25     8     9   ar
    26    18    19   ar
    27    19    20   ar
    28    20    21    1
    29    20    22   ar
    30    22    11    1
    31    22    16   ar
    32     9     1   ar
    33    32    27   ar
    34     9     4   ar
    35    15    23    1
    36    21    24    1
    37    21    25    1
