@<TRIPOS>MOLECULE
*****
 30 33 0 0 0
SMALL
GASTEIGER

@<TRIPOS>ATOM
      1 C         141.2234  142.0705  169.2570 C.ar    1  UNL1        0.1737
      2 C         141.5058  141.5995  170.6528 C.ar    1  UNL1        0.0401
      3 C         142.2585  140.3213  170.8752 C.ar    1  UNL1        0.0046
      4 C         142.7288  139.5140  169.7017 C.ar    1  UNL1        0.0217
      5 C         142.4464  139.9849  168.3059 C.ar    1  UNL1        0.1426
      6 C         141.6937  141.2632  168.0835 C.ar    1  UNL1        0.1895
      7 O         141.4113  141.7342  166.6876 O.3     1  UNL1       -0.4686
      8 C         141.8816  140.9269  165.5141 C.3     1  UNL1        0.2104
      9 C         142.6343  139.6486  165.7365 C.3     1  UNL1        0.1779
     10 C         143.1046  138.8413  164.5630 C.3     1  UNL1        0.0300
     11 S         142.9167  139.1776  167.1323 S.O2    1  UNL1        0.0138
     12 O         143.4236  138.3232  168.2562 O.2     1  UNL1       -0.1685
     13 O         143.5631  138.0736  166.3491 O.2     1  UNL1       -0.1685
     14 C         141.5992  141.3978  164.1182 C.ar    1  UNL1        0.0191
     15 C         142.6054  142.2417  163.3934 C.ar    1  UNL1        0.0023
     16 C         142.3231  142.7127  161.9976 C.ar    1  UNL1        0.0367
     17 C         141.0345  142.3397  161.3265 C.ar    1  UNL1        0.1385
     18 C         140.0282  141.4958  162.0513 C.ar    1  UNL1        0.0367
     19 C         140.3106  141.0249  163.4471 C.ar    1  UNL1        0.0023
     20 O         140.7521  142.8107  159.9306 O.3     1  UNL1       -0.4754
     21 C         140.0359  144.1097  159.7078 C.3     1  UNL1        0.2068
     22 C         140.5475  145.3672  160.3457 C.3     1  UNL1        0.0646
     23 C         139.7537  146.0352  161.4291 C.3     1  UNL1        0.0759
     24 N         139.3865  145.2736  162.6680 N.3     1  UNL1       -0.2726
     25 C         140.2465  145.1022  163.8851 C.3     1  UNL1        0.0721
     26 C         139.4862  144.2723  164.8767 C.3     1  UNL1        0.0188
     27 C         138.1564  143.9308  164.2726 C.3     1  UNL1        0.0188
     28 C         138.0947  144.5497  162.9075 C.3     1  UNL1        0.0721
     29 C         140.3691  144.3608  170.1370 C.3     1  UNL1        0.2526
     30 O         140.4707  143.3488  169.0346 O.3     1  UNL1       -0.4683
@<TRIPOS>BOND
     1    29    30    1
     2    30     1    1
     3     1     2   ar
     4     2     3   ar
     5     3     4   ar
     6     4     5   ar
     7     5     6   ar
     8     6     7    1
     9     7     8    1
    10     8    14    1
    11    14    15   ar
    12    15    16   ar
    13    16    17   ar
    14    17    20    1
    15    20    21    1
    16    21    22    1
    17    22    23    1
    18    23    24    1
    19    24    25    1
    20    25    26    1
    21    26    27    1
    22    27    28    1
    23    17    18   ar
    24    18    19   ar
    25     8     9    1
    26     9    10    1
    27     9    11    1
    28    11    12    2
    29    11    13    2
    30     6     1   ar
    31    19    14   ar
    32    11     5    1
    33    28    24    1
@<TRIPOS>MOLECULE
*****
 30 33 0 0 0
SMALL
GASTEIGER

@<TRIPOS>ATOM
      1 C         142.4702  142.1306  168.6944 C.ar    1  UNL1        0.1737
      2 C         142.3239  142.5853  170.1163 C.ar    1  UNL1        0.0401
      3 C         141.1443  142.1396  170.9287 C.ar    1  UNL1        0.0046
      4 C         140.1110  141.2393  170.3191 C.ar    1  UNL1        0.0217
      5 C         140.2572  140.7847  168.8972 C.ar    1  UNL1        0.1426
      6 C         141.4368  141.2304  168.0848 C.ar    1  UNL1        0.1895
      7 O         141.5830  140.7757  166.6628 O.3     1  UNL1       -0.4686
      8 C         140.5497  139.8754  166.0533 C.3     1  UNL1        0.2104
      9 C         139.3701  139.4297  166.8656 C.3     1  UNL1        0.1779
     10 C         138.3367  138.5294  166.2560 C.3     1  UNL1        0.0300
     11 S         139.2238  139.8843  168.2875 S.O2    1  UNL1        0.0138
     12 O         138.6494  140.0458  169.6638 O.2     1  UNL1       -0.1685
     13 O         137.9910  139.0401  168.1559 O.2     1  UNL1       -0.1685
     14 C         140.6959  139.4207  164.6313 C.ar    1  UNL1        0.0191
     15 C         141.2388  138.0547  164.3328 C.ar    1  UNL1        0.0023
     16 C         141.3851  137.6000  162.9109 C.ar    1  UNL1        0.0367
     17 C         140.9884  138.5114  161.7875 C.ar    1  UNL1        0.1385
     18 C         140.4455  139.8774  162.0860 C.ar    1  UNL1        0.0367
     19 C         140.2993  140.3321  163.5079 C.ar    1  UNL1        0.0023
     20 O         141.1346  138.0567  160.3655 O.3     1  UNL1       -0.4754
     21 C         142.2519  138.5902  159.5187 C.3     1  UNL1        0.2068
     22 C         143.5645  138.9504  160.1489 C.3     1  UNL1        0.0646
     23 C         143.8224  140.3604  160.5909 C.3     1  UNL1        0.0759
     24 N         144.4526  140.6244  161.9262 N.3     1  UNL1       -0.2726
     25 C         144.4122  139.7119  163.1161 C.3     1  UNL1        0.0721
     26 C         145.1685  140.3708  164.2315 C.3     1  UNL1        0.0188
     27 C         145.6763  141.6905  163.7309 C.3     1  UNL1        0.0188
     28 C         145.2338  141.8472  162.3062 C.3     1  UNL1        0.0721
     29 C         143.4752  142.9206  166.4326 C.3     1  UNL1        0.2526
     30 O         143.6498  142.5763  167.8821 O.3     1  UNL1       -0.4683
@<TRIPOS>BOND
     1    29    30    1
     2    30     1    1
     3     1     2   ar
     4     2     3   ar
     5     3     4   ar
     6     4     5   ar
     7     5     6   ar
     8     6     7    1
     9     7     8    1
    10     8    14    1
    11    14    15   ar
    12    15    16   ar
    13    16    17   ar
    14    17    20    1
    15    20    21    1
    16    21    22    1
    17    22    23    1
    18    23    24    1
    19    24    25    1
    20    25    26    1
    21    26    27    1
    22    27    28    1
    23    17    18   ar
    24    18    19   ar
    25     8     9    1
    26     9    10    1
    27     9    11    1
    28    11    12    2
    29    11    13    2
    30     6     1   ar
    31    19    14   ar
    32    11     5    1
    33    28    24    1
@<TRIPOS>MOLECULE
*****
 30 33 0 0 0
SMALL
GASTEIGER

@<TRIPOS>ATOM
      1 C         142.7888  142.1571  167.2474 C.ar    1  UNL1        0.1737
      2 C         143.3712  142.3392  168.6177 C.ar    1  UNL1        0.0401
      3 C         142.6957  141.7243  169.8075 C.ar    1  UNL1        0.0046
      4 C         141.4379  140.9273  169.6271 C.ar    1  UNL1        0.0217
      5 C         140.8556  140.7451  168.2568 C.ar    1  UNL1        0.1426
      6 C         141.5310  141.3600  167.0670 C.ar    1  UNL1        0.1895
      7 O         140.9486  141.1778  165.6967 O.3     1  UNL1       -0.4686
      8 C         139.6908  140.3807  165.5162 C.3     1  UNL1        0.2104
      9 C         139.0154  139.7658  166.7060 C.3     1  UNL1        0.1779
     10 C         137.7575  138.9687  166.5255 C.3     1  UNL1        0.0300
     11 S         139.5977  139.9480  168.0763 S.O2    1  UNL1        0.0138
     12 O         139.7632  139.8404  169.5633 O.2     1  UNL1       -0.1685
     13 O         138.3973  139.1135  168.4123 O.2     1  UNL1       -0.1685
     14 C         139.1084  140.1985  164.1459 C.ar    1  UNL1        0.0191
     15 C         139.4986  139.0108  163.3170 C.ar    1  UNL1        0.0023
     16 C         138.9162  138.8286  161.9468 C.ar    1  UNL1        0.0367
     17 C         137.9437  139.8341  161.4054 C.ar    1  UNL1        0.1385
     18 C         137.5535  141.0218  162.2343 C.ar    1  UNL1        0.0367
     19 C         138.1359  141.2040  163.6046 C.ar    1  UNL1        0.0023
     20 O         137.3613  139.6519  160.0351 O.3     1  UNL1       -0.4754
     21 C         137.9154  140.4257  158.8757 C.3     1  UNL1        0.2068
     22 C         139.3996  140.5447  158.6942 C.3     1  UNL1        0.0646
     23 C         140.0750  141.8699  158.8878 C.3     1  UNL1        0.0759
     24 N         140.4680  142.3174  160.2645 N.3     1  UNL1       -0.2726
     25 C         141.4063  141.6013  161.1902 C.3     1  UNL1        0.0721
     26 C         141.5098  142.4009  162.4550 C.3     1  UNL1        0.0188
     27 C         140.6355  143.6113  162.3112 C.3     1  UNL1        0.0188
     28 C         139.9916  143.5597  160.9573 C.3     1  UNL1        0.0721
     29 C         144.1685  141.8997  165.0610 C.3     1  UNL1        0.2526
     30 O         143.4643  142.7720  166.0576 O.3     1  UNL1       -0.4683
@<TRIPOS>BOND
     1    29    30    1
     2    30     1    1
     3     1     2   ar
     4     2     3   ar
     5     3     4   ar
     6     4     5   ar
     7     5     6   ar
     8     6     7    1
     9     7     8    1
    10     8    14    1
    11    14    15   ar
    12    15    16   ar
    13    16    17   ar
    14    17    20    1
    15    20    21    1
    16    21    22    1
    17    22    23    1
    18    23    24    1
    19    24    25    1
    20    25    26    1
    21    26    27    1
    22    27    28    1
    23    17    18   ar
    24    18    19   ar
    25     8     9    1
    26     9    10    1
    27     9    11    1
    28    11    12    2
    29    11    13    2
    30     6     1   ar
    31    19    14   ar
    32    11     5    1
    33    28    24    1
@<TRIPOS>MOLECULE
*****
 30 33 0 0 0
SMALL
GASTEIGER

@<TRIPOS>ATOM
      1 C         142.7308  142.0104  167.9439 C.ar    1  UNL1        0.1737
      2 C         142.9357  142.4626  169.3593 C.ar    1  UNL1        0.0401
      3 C         141.9511  142.0720  170.4214 C.ar    1  UNL1        0.0046
      4 C         140.7616  141.2293  170.0680 C.ar    1  UNL1        0.0217
      5 C         140.5567  140.7772  168.6526 C.ar    1  UNL1        0.1426
      6 C         141.5413  141.1677  167.5905 C.ar    1  UNL1        0.1895
      7 O         141.3364  140.7155  166.1750 O.3     1  UNL1       -0.4686
      8 C         140.1469  139.8728  165.8216 C.3     1  UNL1        0.2104
      9 C         139.1623  139.4823  166.8837 C.3     1  UNL1        0.1779
     10 C         137.9727  138.6395  166.5303 C.3     1  UNL1        0.0300
     11 S         139.3672  139.9344  168.2992 S.O2    1  UNL1        0.0138
     12 O         139.1304  140.1158  169.7693 O.2     1  UNL1       -0.1685
     13 O         138.0954  139.1547  168.4563 O.2     1  UNL1       -0.1685
     14 C         139.9419  139.4206  164.4061 C.ar    1  UNL1        0.0191
     15 C         139.1925  140.2914  163.4417 C.ar    1  UNL1        0.0023
     16 C         138.9875  139.8392  162.0263 C.ar    1  UNL1        0.0367
     17 C         139.5320  138.5164  161.5752 C.ar    1  UNL1        0.1385
     18 C         140.2815  137.6456  162.5397 C.ar    1  UNL1        0.0367
     19 C         140.4864  138.0977  163.9551 C.ar    1  UNL1        0.0023
     20 O         139.3271  138.0642  160.1597 O.3     1  UNL1       -0.4754
     21 C         140.1126  138.6965  159.0492 C.3     1  UNL1        0.2068
     22 C         141.5297  138.2739  158.7980 C.3     1  UNL1        0.0646
     23 C         142.6620  139.1776  159.1869 C.3     1  UNL1        0.0759
     24 N         143.0358  139.3325  160.6313 N.3     1  UNL1       -0.2726
     25 C         143.8337  138.3570  161.4450 C.3     1  UNL1        0.0721
     26 C         143.9685  138.9116  162.8322 C.3     1  UNL1        0.0188
     27 C         143.2539  140.2298  162.8759 C.3     1  UNL1        0.0188
     28 C         142.6775  140.4899  161.5156 C.3     1  UNL1        0.0721
     29 C         143.2513  143.1495  165.6676 C.3     1  UNL1        0.2526
     30 O         143.7154  142.4010  166.8818 O.3     1  UNL1       -0.4683
@<TRIPOS>BOND
     1    29    30    1
     2    30     1    1
     3     1     2   ar
     4     2     3   ar
     5     3     4   ar
     6     4     5   ar
     7     5     6   ar
     8     6     7    1
     9     7     8    1
    10     8    14    1
    11    14    15   ar
    12    15    16   ar
    13    16    17   ar
    14    17    20    1
    15    20    21    1
    16    21    22    1
    17    22    23    1
    18    23    24    1
    19    24    25    1
    20    25    26    1
    21    26    27    1
    22    27    28    1
    23    17    18   ar
    24    18    19   ar
    25     8     9    1
    26     9    10    1
    27     9    11    1
    28    11    12    2
    29    11    13    2
    30     6     1   ar
    31    19    14   ar
    32    11     5    1
    33    28    24    1
@<TRIPOS>MOLECULE
*****
 30 33 0 0 0
SMALL
GASTEIGER

@<TRIPOS>ATOM
      1 C         141.3677  141.7258  168.6800 C.ar    1  UNL1        0.1737
      2 C         140.6753  141.8507  170.0047 C.ar    1  UNL1        0.0401
      3 C         139.4230  141.0699  170.2730 C.ar    1  UNL1        0.0046
      4 C         138.8631  140.1640  169.2166 C.ar    1  UNL1        0.0217
      5 C         139.5556  140.0391  167.8919 C.ar    1  UNL1        0.1426
      6 C         140.8079  140.8199  167.6236 C.ar    1  UNL1        0.1895
      7 O         141.5003  140.6950  166.2989 O.3     1  UNL1       -0.4686
      8 C         140.9405  139.7891  165.2425 C.3     1  UNL1        0.2104
      9 C         139.6882  139.0083  165.5108 C.3     1  UNL1        0.1779
     10 C         139.1283  138.1024  164.4543 C.3     1  UNL1        0.0300
     11 S         138.9957  139.1332  166.8355 S.O2    1  UNL1        0.0138
     12 O         137.9872  138.9176  167.9247 O.2     1  UNL1       -0.1685
     13 O         138.0856  138.1525  166.1573 O.2     1  UNL1       -0.1685
     14 C         141.6329  139.6642  163.9177 C.ar    1  UNL1        0.0191
     15 C         140.9790  140.1953  162.6766 C.ar    1  UNL1        0.0023
     16 C         141.6714  140.0703  161.3519 C.ar    1  UNL1        0.0367
     17 C         143.0177  139.4142  161.2682 C.ar    1  UNL1        0.1385
     18 C         143.6716  138.8831  162.5093 C.ar    1  UNL1        0.0367
     19 C         142.9792  139.0081  163.8340 C.ar    1  UNL1        0.0023
     20 O         143.7101  139.2892  159.9434 O.3     1  UNL1       -0.4754
     21 C         144.0893  140.5211  159.1762 C.3     1  UNL1        0.2068
     22 C         143.8339  141.8780  159.7623 C.3     1  UNL1        0.0646
     23 C         144.8501  142.5067  160.6691 C.3     1  UNL1        0.0759
     24 N         144.6490  142.4777  162.1552 N.3     1  UNL1       -0.2726
     25 C         143.4607  143.0170  162.8949 C.3     1  UNL1        0.0721
     26 C         143.6782  142.7769  164.3595 C.3     1  UNL1        0.0188
     27 C         145.0010  142.0892  164.5251 C.3     1  UNL1        0.0188
     28 C         145.6010  141.9043  163.1627 C.3     1  UNL1        0.0721
     29 C         143.7333  142.5073  169.4170 C.3     1  UNL1        0.2526
     30 O         142.6201  142.5066  168.4117 O.3     1  UNL1       -0.4683
@<TRIPOS>BOND
     1    29    30    1
     2    30     1    1
     3     1     2   ar
     4     2     3   ar
     5     3     4   ar
     6     4     5   ar
     7     5     6   ar
     8     6     7    1
     9     7     8    1
    10     8    14    1
    11    14    15   ar
    12    15    16   ar
    13    16    17   ar
    14    17    20    1
    15    20    21    1
    16    21    22    1
    17    22    23    1
    18    23    24    1
    19    24    25    1
    20    25    26    1
    21    26    27    1
    22    27    28    1
    23    17    18   ar
    24    18    19   ar
    25     8     9    1
    26     9    10    1
    27     9    11    1
    28    11    12    2
    29    11    13    2
    30     6     1   ar
    31    19    14   ar
    32    11     5    1
    33    28    24    1
@<TRIPOS>MOLECULE
*****
 30 33 0 0 0
SMALL
GASTEIGER

@<TRIPOS>ATOM
      1 C         139.2576  137.1343  155.4072 C.ar    1  UNL1        0.1737
      2 C         140.0098  136.4022  154.3356 C.ar    1  UNL1        0.0401
      3 C         141.4910  136.2020  154.4622 C.ar    1  UNL1        0.0046
      4 C         142.2200  136.7339  155.6603 C.ar    1  UNL1        0.0217
      5 C         141.4679  137.4660  156.7319 C.ar    1  UNL1        0.1426
      6 C         139.9867  137.6662  156.6053 C.ar    1  UNL1        0.1895
      7 O         139.2345  138.3983  157.6770 O.3     1  UNL1       -0.4686
      8 C         139.9636  138.9302  158.8751 C.3     1  UNL1        0.2104
      9 C         141.4448  138.7300  159.0016 C.3     1  UNL1        0.1779
     10 C         142.1738  139.2619  160.1998 C.3     1  UNL1        0.0300
     11 S         142.1969  137.9979  157.9301 S.O2    1  UNL1        0.0138
     12 O         143.3402  137.3755  157.1847 O.2     1  UNL1       -0.1685
     13 O         143.3230  138.3137  158.8694 O.2     1  UNL1       -0.1685
     14 C         139.2114  139.6623  159.9467 C.ar    1  UNL1        0.0191
     15 C         139.0712  141.1542  159.8789 C.ar    1  UNL1        0.0023
     16 C         138.3191  141.8863  160.9505 C.ar    1  UNL1        0.0367
     17 C         137.7072  141.1265  162.0899 C.ar    1  UNL1        0.1385
     18 C         137.8475  139.6346  162.1577 C.ar    1  UNL1        0.0367
     19 C         138.5996  138.9025  161.0861 C.ar    1  UNL1        0.0023
     20 O         136.9551  141.8586  163.1615 O.3     1  UNL1       -0.4754
     21 C         137.6999  142.5115  164.2880 C.3     1  UNL1        0.2068
     22 C         139.1858  142.3414  164.4029 C.3     1  UNL1        0.0646
     23 C         139.7574  141.4207  165.4399 C.3     1  UNL1        0.0759
     24 N         139.5808  139.9373  165.3050 N.3     1  UNL1       -0.2726
     25 C         140.5539  138.9875  164.6716 C.3     1  UNL1        0.0721
     26 C         139.9747  137.6063  164.7550 C.3     1  UNL1        0.0188
     27 C         138.6436  137.7024  165.4399 C.3     1  UNL1        0.0188
     28 C         138.4002  139.1431  165.7798 C.3     1  UNL1        0.0721
     29 C         137.1717  137.6325  153.9407 C.3     1  UNL1        0.2526
     30 O         137.7765  137.3344  155.2806 O.3     1  UNL1       -0.4683
@<TRIPOS>BOND
     1    29    30    1
     2    30     1    1
     3     1     2   ar
     4     2     3   ar
     5     3     4   ar
     6     4     5   ar
     7     5     6   ar
     8     6     7    1
     9     7     8    1
    10     8    14    1
    11    14    15   ar
    12    15    16   ar
    13    16    17   ar
    14    17    20    1
    15    20    21    1
    16    21    22    1
    17    22    23    1
    18    23    24    1
    19    24    25    1
    20    25    26    1
    21    26    27    1
    22    27    28    1
    23    17    18   ar
    24    18    19   ar
    25     8     9    1
    26     9    10    1
    27     9    11    1
    28    11    12    2
    29    11    13    2
    30     6     1   ar
    31    19    14   ar
    32    11     5    1
    33    28    24    1
@<TRIPOS>MOLECULE
*****
 30 33 0 0 0
SMALL
GASTEIGER

@<TRIPOS>ATOM
      1 C         139.2519  137.1031  155.4476 C.ar    1  UNL1        0.1737
      2 C         140.0019  136.3749  154.3719 C.ar    1  UNL1        0.0401
      3 C         141.4892  136.2095  154.4750 C.ar    1  UNL1        0.0046
      4 C         142.2265  136.7723  155.6538 C.ar    1  UNL1        0.0217
      5 C         141.4765  137.5006  156.7295 C.ar    1  UNL1        0.1426
      6 C         139.9892  137.6660  156.6264 C.ar    1  UNL1        0.1895
      7 O         139.2392  138.3943  157.7021 O.3     1  UNL1       -0.4686
      8 C         139.9765  138.9572  158.8809 C.3     1  UNL1        0.2104
      9 C         141.4638  138.7918  158.9840 C.3     1  UNL1        0.1779
     10 C         142.2011  139.3547  160.1628 C.3     1  UNL1        0.0300
     11 S         142.2138  138.0635  157.9083 S.O2    1  UNL1        0.0138
     12 O         143.3579  137.4576  157.1506 O.2     1  UNL1       -0.1685
     13 O         143.3485  138.4160  158.8240 O.2     1  UNL1       -0.1685
     14 C         139.2266  139.6855  159.9566 C.ar    1  UNL1        0.0191
     15 C         138.6029  138.9201  161.0858 C.ar    1  UNL1        0.0023
     16 C         137.8529  139.6483  162.1615 C.ar    1  UNL1        0.0367
     17 C         137.7267  141.1420  162.1080 C.ar    1  UNL1        0.1385
     18 C         138.3504  141.9074  160.9789 C.ar    1  UNL1        0.0367
     19 C         139.1003  141.1792  159.9031 C.ar    1  UNL1        0.0023
     20 O         136.9767  141.8703  163.1838 O.3     1  UNL1       -0.4754
     21 C         137.7234  142.6811  164.2012 C.3     1  UNL1        0.2068
     22 C         137.8787  144.1611  164.0136 C.3     1  UNL1        0.0646
     23 C         139.2476  144.7736  163.9821 C.3     1  UNL1        0.0759
     24 N         140.0651  144.7186  162.7257 N.3     1  UNL1       -0.2726
     25 C         141.1923  143.7685  162.4480 C.3     1  UNL1        0.0721
     26 C         141.7228  144.0668  161.0770 C.3     1  UNL1        0.0188
     27 C         140.9236  145.2012  160.5073 C.3     1  UNL1        0.0188
     28 C         139.8991  145.6040  161.5263 C.3     1  UNL1        0.0721
     29 C         137.1680  137.9657  154.1580 C.3     1  UNL1        0.2526
     30 O         137.7646  137.2686  155.3445 O.3     1  UNL1       -0.4683
@<TRIPOS>BOND
     1    29    30    1
     2    30     1    1
     3     1     2   ar
     4     2     3   ar
     5     3     4   ar
     6     4     5   ar
     7     5     6   ar
     8     6     7    1
     9     7     8    1
    10     8    14    1
    11    14    15   ar
    12    15    16   ar
    13    16    17   ar
    14    17    20    1
    15    20    21    1
    16    21    22    1
    17    22    23    1
    18    23    24    1
    19    24    25    1
    20    25    26    1
    21    26    27    1
    22    27    28    1
    23    17    18   ar
    24    18    19   ar
    25     8     9    1
    26     9    10    1
    27     9    11    1
    28    11    12    2
    29    11    13    2
    30     6     1   ar
    31    19    14   ar
    32    11     5    1
    33    28    24    1
@<TRIPOS>MOLECULE
*****
 30 33 0 0 0
SMALL
GASTEIGER

@<TRIPOS>ATOM
      1 C         142.6098  141.9429  169.3325 C.ar    1  UNL1        0.1737
      2 C         142.1469  141.4681  170.6780 C.ar    1  UNL1        0.0401
      3 C         140.9304  140.5976  170.7884 C.ar    1  UNL1        0.0046
      4 C         140.1766  140.2020  169.5534 C.ar    1  UNL1        0.0217
      5 C         140.6395  140.6768  168.2079 C.ar    1  UNL1        0.1426
      6 C         141.8560  141.5473  168.0975 C.ar    1  UNL1        0.1895
      7 O         142.3189  142.0222  166.7520 O.3     1  UNL1       -0.4686
      8 C         141.5651  141.6265  165.5170 C.3     1  UNL1        0.2104
      9 C         140.3486  140.7560  165.6274 C.3     1  UNL1        0.1779
     10 C         139.5948  140.3604  164.3923 C.3     1  UNL1        0.0300
     11 S         139.8857  140.2812  166.9728 S.O2    1  UNL1        0.0138
     12 O         139.0617  139.5849  168.0151 O.2     1  UNL1       -0.1685
     13 O         138.8458  139.6438  166.0997 O.2     1  UNL1       -0.1685
     14 C         142.0280  142.1014  164.1714 C.ar    1  UNL1        0.0191
     15 C         142.2864  143.5606  163.9392 C.ar    1  UNL1        0.0023
     16 C         142.7492  144.0355  162.5938 C.ar    1  UNL1        0.0367
     17 C         142.9536  143.0511  161.4806 C.ar    1  UNL1        0.1385
     18 C         142.6952  141.5919  161.7128 C.ar    1  UNL1        0.0367
     19 C         142.2324  141.1170  163.0583 C.ar    1  UNL1        0.0023
     20 O         143.4164  143.5260  160.1350 O.3     1  UNL1       -0.4754
     21 C         142.4224  143.7383  159.0320 C.3     1  UNL1        0.2068
     22 C         141.3648  144.7933  159.1682 C.3     1  UNL1        0.0646
     23 C         139.9592  144.4052  159.5196 C.3     1  UNL1        0.0759
     24 N         139.5186  144.4004  160.9534 N.3     1  UNL1       -0.2726
     25 C         138.9517  143.2279  161.6977 C.3     1  UNL1        0.0721
     26 C         138.6503  143.6701  163.0990 C.3     1  UNL1        0.0188
     27 C         139.0308  145.1160  163.2208 C.3     1  UNL1        0.0188
     28 C         139.5675  145.5673  161.8947 C.3     1  UNL1        0.0721
     29 C         144.8589  142.8007  170.3100 C.3     1  UNL1        0.2526
     30 O         143.8264  142.8134  169.2221 O.3     1  UNL1       -0.4683
@<TRIPOS>BOND
     1    29    30    1
     2    30     1    1
     3     1     2   ar
     4     2     3   ar
     5     3     4   ar
     6     4     5   ar
     7     5     6   ar
     8     6     7    1
     9     7     8    1
    10     8    14    1
    11    14    15   ar
    12    15    16   ar
    13    16    17   ar
    14    17    20    1
    15    20    21    1
    16    21    22    1
    17    22    23    1
    18    23    24    1
    19    24    25    1
    20    25    26    1
    21    26    27    1
    22    27    28    1
    23    17    18   ar
    24    18    19   ar
    25     8     9    1
    26     9    10    1
    27     9    11    1
    28    11    12    2
    29    11    13    2
    30     6     1   ar
    31    19    14   ar
    32    11     5    1
    33    28    24    1
@<TRIPOS>MOLECULE
*****
 30 33 0 0 0
SMALL
GASTEIGER

@<TRIPOS>ATOM
      1 C         142.7146  135.3899  156.0382 C.ar    1  UNL1        0.1737
      2 C         142.0239  134.8649  154.8146 C.ar    1  UNL1        0.0401
      3 C         140.6880  135.4162  154.4127 C.ar    1  UNL1        0.0046
      4 C         140.0428  136.4924  155.2344 C.ar    1  UNL1        0.0217
      5 C         140.7335  137.0174  156.4580 C.ar    1  UNL1        0.1426
      6 C         142.0693  136.4661  156.8599 C.ar    1  UNL1        0.1895
      7 O         142.7600  136.9912  158.0836 O.3     1  UNL1       -0.4686
      8 C         142.1148  138.0675  158.9054 C.3     1  UNL1        0.2104
      9 C         140.7789  138.6188  158.5034 C.3     1  UNL1        0.1779
     10 C         140.1337  139.6951  159.3252 C.3     1  UNL1        0.0300
     11 S         140.0883  138.0938  157.2798 S.O2    1  UNL1        0.0138
     12 O         139.0480  137.9218  156.2128 O.2     1  UNL1       -0.1685
     13 O         139.0818  139.1104  157.7310 O.2     1  UNL1       -0.1685
     14 C         142.8054  138.5926  160.1291 C.ar    1  UNL1        0.0191
     15 C         143.7570  139.7465  160.0162 C.ar    1  UNL1        0.0023
     16 C         144.4477  140.2716  161.2398 C.ar    1  UNL1        0.0367
     17 C         144.1867  139.6427  162.5763 C.ar    1  UNL1        0.1385
     18 C         143.2351  138.4887  162.6892 C.ar    1  UNL1        0.0367
     19 C         142.5444  137.9636  161.4656 C.ar    1  UNL1        0.0023
     20 O         144.8773  140.1677  163.8000 O.3     1  UNL1       -0.4754
     21 C         145.5145  141.5255  163.7772 C.3     1  UNL1        0.2068
     22 C         144.9657  142.6261  164.6359 C.3     1  UNL1        0.0646
     23 C         143.9234  143.5556  164.0886 C.3     1  UNL1        0.0759
     24 N         142.8560  143.0309  163.1747 N.3     1  UNL1       -0.2726
     25 C         141.7668  142.0706  163.5511 C.3     1  UNL1        0.0721
     26 C         140.9279  141.8206  162.3330 C.3     1  UNL1        0.0188
     27 C         141.4986  142.6263  161.2037 C.3     1  UNL1        0.0188
     28 C         142.6903  143.3743  161.7240 C.3     1  UNL1        0.0721
     29 C         144.1285  133.6743  157.3827 C.3     1  UNL1        0.2526
     30 O         144.0504  134.8386  156.4401 O.3     1  UNL1       -0.4683
@<TRIPOS>BOND
     1    29    30    1
     2    30     1    1
     3     1     2   ar
     4     2     3   ar
     5     3     4   ar
     6     4     5   ar
     7     5     6   ar
     8     6     7    1
     9     7     8    1
    10     8    14    1
    11    14    15   ar
    12    15    16   ar
    13    16    17   ar
    14    17    20    1
    15    20    21    1
    16    21    22    1
    17    22    23    1
    18    23    24    1
    19    24    25    1
    20    25    26    1
    21    26    27    1
    22    27    28    1
    23    17    18   ar
    24    18    19   ar
    25     8     9    1
    26     9    10    1
    27     9    11    1
    28    11    12    2
    29    11    13    2
    30     6     1   ar
    31    19    14   ar
    32    11     5    1
    33    28    24    1
