@<TRIPOS>MOLECULE
*****
 18 20 0 0 0
SMALL
GASTEIGER

@<TRIPOS>ATOM
      1 N         143.4133  143.9949  171.2254 N.pl3   1  UNL1       -0.3375
      2 C         142.7408  143.0474  170.2767 C.ar    1  UNL1        0.1567
      3 N         143.3709  142.4069  169.0755 N.ar    1  UNL1       -0.2245
      4 C         142.3396  141.5377  168.4192 C.ar    1  UNL1        0.0889
      5 C         142.3910  140.6655  167.1998 C.ar    1  UNL1        0.0151
      6 C         141.1747  139.8965  166.7761 C.ar    1  UNL1       -0.0232
      7 C         139.9073  139.9997  167.5716 C.ar    1  UNL1       -0.0241
      8 C         139.8560  140.8719  168.7909 C.ar    1  UNL1        0.0035
      9 C         141.0721  141.6409  169.2147 C.ar    1  UNL1        0.0494
     10 S         141.3201  142.5739  170.3627 S.2     1  UNL1       -0.0520
     11 C         138.5912  139.3233  167.3259 C.3     1  UNL1        0.0431
     12 C         138.2176  138.3765  166.2240 C.3     1  UNL1        0.0733
     13 N         139.0677  137.8725  165.0957 N.3     1  UNL1       -0.2969
     14 C         140.5015  138.1906  164.7905 C.3     1  UNL1        0.0733
     15 C         141.4392  139.0914  165.5384 C.3     1  UNL1        0.0431
     16 H         144.3545  144.2472  171.0845 H       1  UNL1        0.1442
     17 H         142.9136  144.3645  171.9889 H       1  UNL1        0.1442
     18 H         138.5609  138.1436  164.2531 H       1  UNL1        0.1233
@<TRIPOS>BOND
     1     1     2    1
     2     2     3   ar
     3     3     4   ar
     4     4     5   ar
     5     5     6   ar
     6     6     7   ar
     7     7     8   ar
     8     8     9   ar
     9     9    10   ar
    10     7    11    1
    11    11    12    1
    12    12    13    1
    13    13    14    1
    14    14    15    1
    15    10     2   ar
    16     9     4   ar
    17    15     6    1
    18     1    16    1
    19     1    17    1
    20    13    18    1
@<TRIPOS>MOLECULE
*****
 18 20 0 0 0
SMALL
GASTEIGER

@<TRIPOS>ATOM
      1 N         143.3644  143.9350  171.2278 N.pl3   1  UNL1       -0.3375
      2 C         142.6824  142.9822  170.2912 C.ar    1  UNL1        0.1567
      3 N         141.2462  142.5548  170.3596 N.ar    1  UNL1       -0.2245
      4 C         140.9931  141.5981  169.2325 C.ar    1  UNL1        0.0889
      5 C         139.7626  140.8549  168.8040 C.ar    1  UNL1        0.0151
      6 C         139.8120  139.9478  167.6103 C.ar    1  UNL1       -0.0232
      7 C         141.0917  139.7838  166.8453 C.ar    1  UNL1       -0.0241
      8 C         142.3222  140.5269  167.2738 C.ar    1  UNL1        0.0035
      9 C         142.2729  141.4341  168.4675 C.ar    1  UNL1        0.0494
     10 S         143.3169  142.2896  169.1218 S.2     1  UNL1       -0.0520
     11 C         141.3565  138.9366  165.6361 C.3     1  UNL1        0.0431
     12 C         140.4068  138.0442  164.8932 C.3     1  UNL1        0.0733
     13 N         138.9580  137.7786  165.1761 N.3     1  UNL1       -0.2969
     14 C         138.1007  138.3397  166.2718 C.3     1  UNL1        0.0733
     15 C         138.4808  139.3051  167.3551 C.3     1  UNL1        0.0431
     16 H         142.8607  144.3409  171.9700 H       1  UNL1        0.1442
     17 H         144.3156  144.1545  171.1003 H       1  UNL1        0.1442
     18 H         138.9032  136.7678  165.3012 H       1  UNL1        0.1233
@<TRIPOS>BOND
     1     1     2    1
     2     2     3   ar
     3     3     4   ar
     4     4     5   ar
     5     5     6   ar
     6     6     7   ar
     7     7     8   ar
     8     8     9   ar
     9     9    10   ar
    10     7    11    1
    11    11    12    1
    12    12    13    1
    13    13    14    1
    14    14    15    1
    15    10     2   ar
    16     9     4   ar
    17    15     6    1
    18     1    16    1
    19     1    17    1
    20    13    18    1
@<TRIPOS>MOLECULE
*****
 18 20 0 0 0
SMALL
GASTEIGER

@<TRIPOS>ATOM
      1 N         137.6951  140.0907  162.9077 N.pl3   1  UNL1       -0.3375
      2 C         138.3382  140.3821  164.2312 C.ar    1  UNL1        0.1567
      3 N         138.2366  139.5367  165.4661 N.ar    1  UNL1       -0.2245
      4 C         139.0314  140.2022  166.5502 C.ar    1  UNL1        0.0889
      5 C         139.2919  139.8261  167.9788 C.ar    1  UNL1        0.0151
      6 C         140.1452  140.7070  168.8425 C.ar    1  UNL1       -0.0232
      7 C         140.7381  141.9636  168.2777 C.ar    1  UNL1       -0.0241
      8 C         140.4776  142.3397  166.8492 C.ar    1  UNL1        0.0035
      9 C         139.6243  141.4590  165.9854 C.ar    1  UNL1        0.0494
     10 S         139.1958  141.5702  164.5522 S.2     1  UNL1       -0.0520
     11 C         141.6105  142.9751  168.9603 C.3     1  UNL1        0.0431
     12 C         142.1055  142.9795  170.3763 C.3     1  UNL1        0.0733
     13 N         141.8504  141.9737  171.4593 N.3     1  UNL1       -0.2969
     14 C         141.0372  140.7149  171.3940 C.3     1  UNL1        0.0733
     15 C         140.2783  140.1511  170.2294 C.3     1  UNL1        0.0431
     16 H         137.1471  139.2807  162.7944 H       1  UNL1        0.1442
     17 H         137.8211  140.7095  162.1524 H       1  UNL1        0.1442
     18 H         141.4263  142.5130  172.2141 H       1  UNL1        0.1233
@<TRIPOS>BOND
     1     1     2    1
     2     2     3   ar
     3     3     4   ar
     4     4     5   ar
     5     5     6   ar
     6     6     7   ar
     7     7     8   ar
     8     8     9   ar
     9     9    10   ar
    10     7    11    1
    11    11    12    1
    12    12    13    1
    13    13    14    1
    14    14    15    1
    15    10     2   ar
    16     9     4   ar
    17    15     6    1
    18     1    16    1
    19     1    17    1
    20    13    18    1
@<TRIPOS>MOLECULE
*****
 18 20 0 0 0
SMALL
GASTEIGER

@<TRIPOS>ATOM
      1 N         144.5119  138.3276  160.8573 N.pl3   1  UNL1       -0.3375
      2 C         143.5376  138.4754  161.9882 C.ar    1  UNL1        0.1567
      3 N         143.7758  139.2259  163.2649 N.ar    1  UNL1       -0.2245
      4 C         142.5394  139.1129  164.1066 C.ar    1  UNL1        0.0889
      5 C         142.1968  139.6510  165.4642 C.ar    1  UNL1        0.0151
      6 C         140.8517  139.3687  166.0653 C.ar    1  UNL1       -0.0232
      7 C         139.8495  138.5485  165.3088 C.ar    1  UNL1       -0.0241
      8 C         140.1920  138.0103  163.9513 C.ar    1  UNL1        0.0035
      9 C         141.5370  138.2925  163.3501 C.ar    1  UNL1        0.0494
     10 S         142.1539  137.8985  162.0409 S.2     1  UNL1       -0.0520
     11 C         138.4627  138.1524  165.7213 C.3     1  UNL1        0.0431
     12 C         137.7358  138.4791  166.9922 C.3     1  UNL1        0.0733
     13 N         138.2162  139.2822  168.1643 N.3     1  UNL1       -0.2969
     14 C         139.5421  139.9573  168.3553 C.3     1  UNL1        0.0733
     15 C         140.7150  139.9958  167.4211 C.3     1  UNL1        0.0431
     16 H         145.4014  138.7454  160.9161 H       1  UNL1        0.1442
     17 H         144.2619  137.8128  160.0562 H       1  UNL1        0.1442
     18 H         138.1357  138.6478  168.9590 H       1  UNL1        0.1233
@<TRIPOS>BOND
     1     1     2    1
     2     2     3   ar
     3     3     4   ar
     4     4     5   ar
     5     5     6   ar
     6     6     7   ar
     7     7     8   ar
     8     8     9   ar
     9     9    10   ar
    10     7    11    1
    11    11    12    1
    12    12    13    1
    13    13    14    1
    14    14    15    1
    15    10     2   ar
    16     9     4   ar
    17    15     6    1
    18     1    16    1
    19     1    17    1
    20    13    18    1
@<TRIPOS>MOLECULE
*****
 18 20 0 0 0
SMALL
GASTEIGER

@<TRIPOS>ATOM
      1 N         140.3966  142.1282  171.4790 N.pl3   1  UNL1       -0.3375
      2 C         140.4218  141.4065  170.1642 C.ar    1  UNL1        0.1567
      3 N         139.2312  140.8511  169.4403 N.ar    1  UNL1       -0.2245
      4 C         139.7156  140.2149  168.1713 C.ar    1  UNL1        0.0889
      5 C         138.9924  139.5088  167.0629 C.ar    1  UNL1        0.0151
      6 C         139.7593  138.9649  165.8940 C.ar    1  UNL1       -0.0232
      7 C         141.2492  139.1271  165.8336 C.ar    1  UNL1       -0.0241
      8 C         141.9724  139.8332  166.9419 C.ar    1  UNL1        0.0035
      9 C         141.2056  140.3771  168.1108 C.ar    1  UNL1        0.0494
     10 S         141.6420  141.1135  169.3425 S.2     1  UNL1       -0.0520
     11 C         142.1979  138.6640  164.7680 C.3     1  UNL1        0.0431
     12 C         141.8909  137.9243  163.4996 C.3     1  UNL1        0.0733
     13 N         140.5595  137.4651  162.9837 N.3     1  UNL1       -0.2969
     14 C         139.2061  137.6321  163.6086 C.3     1  UNL1        0.0733
     15 C         138.8499  138.2996  164.9038 C.3     1  UNL1        0.0431
     16 H         139.5414  142.2728  171.9448 H       1  UNL1        0.1442
     17 H         141.2352  142.4572  171.8761 H       1  UNL1        0.1442
     18 H         140.6644  136.4573  162.8670 H       1  UNL1        0.1233
@<TRIPOS>BOND
     1     1     2    1
     2     2     3   ar
     3     3     4   ar
     4     4     5   ar
     5     5     6   ar
     6     6     7   ar
     7     7     8   ar
     8     8     9   ar
     9     9    10   ar
    10     7    11    1
    11    11    12    1
    12    12    13    1
    13    13    14    1
    14    14    15    1
    15    10     2   ar
    16     9     4   ar
    17    15     6    1
    18     1    16    1
    19     1    17    1
    20    13    18    1
@<TRIPOS>MOLECULE
*****
 18 20 0 0 0
SMALL
GASTEIGER

@<TRIPOS>ATOM
      1 N         140.7302  139.5608  170.0529 N.pl3   1  UNL1       -0.3375
      2 C         141.0613  140.4306  168.8765 C.ar    1  UNL1        0.1567
      3 N         140.0950  141.2878  168.1140 N.ar    1  UNL1       -0.2245
      4 C         140.8534  141.9828  167.0224 C.ar    1  UNL1        0.0889
      5 C         140.4226  142.9499  165.9597 C.ar    1  UNL1        0.0151
      6 C         141.4270  143.4893  164.9848 C.ar    1  UNL1       -0.0232
      7 C         142.8619  143.0616  165.0726 C.ar    1  UNL1       -0.0241
      8 C         143.2928  142.0946  166.1352 C.ar    1  UNL1        0.0035
      9 C         142.2885  141.5552  167.1101 C.ar    1  UNL1        0.0494
     10 S         142.4169  140.5958  168.2561 S.2     1  UNL1       -0.0520
     11 C         144.0157  143.4750  164.2076 C.3     1  UNL1        0.0431
     12 C         144.0191  144.4181  163.0411 C.3     1  UNL1        0.0733
     13 N         142.8699  145.1808  162.4517 N.3     1  UNL1       -0.2969
     14 C         141.4333  145.1887  162.8830 C.3     1  UNL1        0.0733
     15 C         140.7911  144.4360  164.0104 C.3     1  UNL1        0.0431
     16 H         139.8058  139.5185  170.3891 H       1  UNL1        0.1442
     17 H         141.4372  139.0323  170.4889 H       1  UNL1        0.1442
     18 H         142.8419  144.8866  161.4754 H       1  UNL1        0.1233
@<TRIPOS>BOND
     1     1     2    1
     2     2     3   ar
     3     3     4   ar
     4     4     5   ar
     5     5     6   ar
     6     6     7   ar
     7     7     8   ar
     8     8     9   ar
     9     9    10   ar
    10     7    11    1
    11    11    12    1
    12    12    13    1
    13    13    14    1
    14    14    15    1
    15    10     2   ar
    16     9     4   ar
    17    15     6    1
    18     1    16    1
    19     1    17    1
    20    13    18    1
@<TRIPOS>MOLECULE
*****
 18 20 0 0 0
SMALL
GASTEIGER

@<TRIPOS>ATOM
      1 N         140.9446  139.4954  170.1914 N.pl3   1  UNL1       -0.3375
      2 C         141.2377  140.3683  169.0073 C.ar    1  UNL1        0.1567
      3 N         142.5771  140.5522  168.3574 N.ar    1  UNL1       -0.2245
      4 C         142.4100  141.5081  167.2136 C.ar    1  UNL1        0.0889
      5 C         143.3852  142.0606  166.2167 C.ar    1  UNL1        0.0151
      6 C         142.9177  143.0200  165.1626 C.ar    1  UNL1       -0.0232
      7 C         141.4752  143.4269  165.1056 C.ar    1  UNL1       -0.0241
      8 C         140.5000  142.8745  166.1025 C.ar    1  UNL1        0.0035
      9 C         140.9674  141.9151  167.1565 C.ar    1  UNL1        0.0494
     10 S         140.2429  141.2107  168.2651 S.2     1  UNL1       -0.0520
     11 C         140.8048  144.3632  164.1442 C.3     1  UNL1        0.0431
     12 C         141.4116  145.1236  163.0024 C.3     1  UNL1        0.0733
     13 N         142.8384  145.1357  162.5401 N.3     1  UNL1       -0.2969
     14 C         144.0111  144.3903  163.1053 C.3     1  UNL1        0.0733
     15 C         144.0463  143.4487  164.2724 C.3     1  UNL1        0.0431
     16 H         141.6684  138.9777  170.6124 H       1  UNL1        0.1442
     17 H         140.0284  139.4403  170.5475 H       1  UNL1        0.1442
     18 H         143.1134  146.1169  162.5855 H       1  UNL1        0.1233
@<TRIPOS>BOND
     1     1     2    1
     2     2     3   ar
     3     3     4   ar
     4     4     5   ar
     5     5     6   ar
     6     6     7   ar
     7     7     8   ar
     8     8     9   ar
     9     9    10   ar
    10     7    11    1
    11    11    12    1
    12    12    13    1
    13    13    14    1
    14    14    15    1
    15    10     2   ar
    16     9     4   ar
    17    15     6    1
    18     1    16    1
    19     1    17    1
    20    13    18    1
@<TRIPOS>MOLECULE
*****
 18 20 0 0 0
SMALL
GASTEIGER

@<TRIPOS>ATOM
      1 N         144.7550  139.1644  163.0127 N.pl3   1  UNL1       -0.3375
      2 C         144.0385  139.5947  164.2583 C.ar    1  UNL1        0.1567
      3 N         143.8137  138.7551  165.4808 N.ar    1  UNL1       -0.2245
      4 C         143.0573  139.5816  166.4781 C.ar    1  UNL1        0.0889
      5 C         142.5581  139.2790  167.8599 C.ar    1  UNL1        0.0151
      6 C         141.8162  140.3269  168.6355 C.ar    1  UNL1       -0.0232
      7 C         141.5734  141.6772  168.0293 C.ar    1  UNL1       -0.0241
      8 C         142.0725  141.9799  166.6476 C.ar    1  UNL1        0.0035
      9 C         142.8145  140.9320  165.8719 C.ar    1  UNL1        0.0494
     10 S         143.4209  140.9401  164.5000 S.2     1  UNL1       -0.0520
     11 C         140.8618  142.8557  168.6252 C.3     1  UNL1        0.0431
     12 C         140.2173  142.9746  169.9745 C.3     1  UNL1        0.0733
     13 N         140.1252  141.9446  171.0610 N.3     1  UNL1       -0.2969
     14 C         140.6548  140.5412  171.0667 C.3     1  UNL1        0.0733
     15 C         141.4074  139.8213  169.9873 C.3     1  UNL1        0.0431
     16 H         145.1282  138.2557  162.9484 H       1  UNL1        0.1442
     17 H         144.8521  139.7908  162.2594 H       1  UNL1        0.1442
     18 H         139.1247  141.8408  171.2305 H       1  UNL1        0.1233
@<TRIPOS>BOND
     1     1     2    1
     2     2     3   ar
     3     3     4   ar
     4     4     5   ar
     5     5     6   ar
     6     6     7   ar
     7     7     8   ar
     8     8     9   ar
     9     9    10   ar
    10     7    11    1
    11    11    12    1
    12    12    13    1
    13    13    14    1
    14    14    15    1
    15    10     2   ar
    16     9     4   ar
    17    15     6    1
    18     1    16    1
    19     1    17    1
    20    13    18    1
@<TRIPOS>MOLECULE
*****
 18 20 0 0 0
SMALL
GASTEIGER

@<TRIPOS>ATOM
      1 N         138.5891  138.3096  163.2188 N.pl3   1  UNL1       -0.3375
      2 C         139.1709  138.9433  164.4476 C.ar    1  UNL1        0.1567
      3 N         140.4848  139.6621  164.5311 N.ar    1  UNL1       -0.2245
      4 C         140.6668  140.1326  165.9437 C.ar    1  UNL1        0.0889
      5 C         141.7713  140.8955  166.6131 C.ar    1  UNL1        0.0151
      6 C         141.6744  141.2303  168.0721 C.ar    1  UNL1       -0.0232
      7 C         140.4730  140.8023  168.8616 C.ar    1  UNL1       -0.0241
      8 C         139.3685  140.0394  168.1923 C.ar    1  UNL1        0.0035
      9 C         139.4653  139.7045  166.7333 C.ar    1  UNL1        0.0494
     10 S         138.5409  138.9695  165.8086 S.2     1  UNL1       -0.0520
     11 C         140.1787  141.0309  170.3146 C.3     1  UNL1        0.0431
     12 C         141.0133  141.7440  171.3369 C.3     1  UNL1        0.0733
     13 N         142.3480  142.4046  171.1587 N.3     1  UNL1       -0.2969
     14 C         143.1781  142.5153  169.9142 C.3     1  UNL1        0.0733
     15 C         142.8783  141.9927  168.5405 C.3     1  UNL1        0.0431
     16 H         139.0811  138.3449  162.3668 H       1  UNL1        0.1442
     17 H         137.7153  137.8583  163.2643 H       1  UNL1        0.1442
     18 H         142.9563  141.9369  171.8308 H       1  UNL1        0.1233
@<TRIPOS>BOND
     1     1     2    1
     2     2     3   ar
     3     3     4   ar
     4     4     5   ar
     5     5     6   ar
     6     6     7   ar
     7     7     8   ar
     8     8     9   ar
     9     9    10   ar
    10     7    11    1
    11    11    12    1
    12    12    13    1
    13    13    14    1
    14    14    15    1
    15    10     2   ar
    16     9     4   ar
    17    15     6    1
    18     1    16    1
    19     1    17    1
    20    13    18    1
