@<TRIPOS>MOLECULE
*****
 37 41 0 0 0
SMALL
GASTEIGER

@<TRIPOS>ATOM
      1 C         139.8734  139.6288  162.9604 C.ar    1  UNL1        0.0878
      2 C         138.7352  138.8495  163.5496 C.ar    1  UNL1        0.1543
      3 F         137.8355  138.0460  162.6581 F       1  UNL1       -0.2028
      4 C         138.4968  138.8737  165.0303 C.ar    1  UNL1        0.0356
      5 C         139.3966  139.6772  165.9218 C.ar    1  UNL1        0.0580
      6 C         139.1581  139.7013  167.4026 C.ar    1  UNL1        0.1996
      7 O         138.0199  138.9220  167.9918 O.2     1  UNL1       -0.2864
      8 C         140.0579  140.5048  168.2941 C.ar    1  UNL1        0.0701
      9 C         141.1961  141.2842  167.7049 C.ar    1  UNL1        0.0801
     10 N         141.4345  141.2600  166.2242 N.ar    1  UNL1       -0.3270
     11 C         140.5348  140.4565  165.3327 C.ar    1  UNL1        0.0750
     12 C         140.7732  140.4323  163.8520 C.ar    1  UNL1        0.0890
     13 CL        141.9114  141.2116  163.2627 Cl      1  UNL1       -0.0794
     14 C         140.6750  138.8448  159.2444 C.3     1  UNL1        0.0929
     15 C         140.2827  140.2900  159.1577 C.3     1  UNL1        0.0427
     16 C         139.9346  140.7596  160.5391 C.3     1  UNL1        0.0927
     17 N         140.1119  139.6046  161.4797 N.pl3   1  UNL1       -0.3033
     18 C         140.5694  138.4212  160.6795 C.3     1  UNL1        0.1104
     19 C         142.5412  137.9218  157.6902 C.2     1  UNL1        0.2245
     20 O         143.5603  138.7369  158.4299 O.2     1  UNL1       -0.2750
     21 N         141.0985  137.9757  158.0975 N.am    1  UNL1       -0.3042
     22 H         140.4296  137.4408  157.6121 H       1  UNL1        0.1494
     23 C         142.9647  137.0528  156.5433 C.3     1  UNL1        0.1113
     24 C         142.2033  135.7985  156.2316 C.3     1  UNL1        0.1366
     25 C         145.4213  132.0367  158.0680 C.3     1  UNL1        0.0540
     26 C         144.2939  132.7300  157.3622 C.ar    1  UNL1        0.0801
     27 C         143.2175  132.0661  156.5557 C.ar    1  UNL1        0.0308
     28 C         142.3033  133.1348  156.0340 C.ar    1  UNL1        0.0571
     29 C         141.0906  132.9172  155.1784 C.3     1  UNL1        0.0517
     30 N         142.8147  134.4591  156.5181 N.ar    1  UNL1       -0.2547
     31 N         144.0450  134.2090  157.3390 N.ar    1  UNL1       -0.1740
     32 C         139.8195  140.5290  169.7748 C.2     1  UNL1        0.0774
     33 O         139.1485  141.7122  170.4073 O.co2   1  UNL1       -0.5444
     34 O         140.2520  139.3700  170.6232 O.co2   1  UNL1       -0.5444
     35 C         142.5727  142.0393  165.6350 C.3     1  UNL1        0.0857
     36 C         143.1198  143.3210  165.0801 C.3     1  UNL1        0.0245
     37 C         143.9969  142.1075  165.1694 C.3     1  UNL1        0.0245
@<TRIPOS>UNITY_ATOM_ATTR
33 1
charge -1
@<TRIPOS>BOND
     1    25    26    1
     2    26    27   ar
     3    27    28   ar
     4    28    29    1
     5    28    30   ar
     6    30    24    1
     7    24    23    1
     8    23    19    1
     9    19    20    2
    10    19    21   am
    11    21    14    1
    12    14    15    1
    13    15    16    1
    14    16    17    1
    15    17     1    1
    16     1     2   ar
    17     2     3    1
    18     2     4   ar
    19     4     5   ar
    20     5     6   ar
    21     6     7    2
    22     6     8   ar
    23     8    32    1
    24    32    33   ar
    25    32    34   ar
    26     8     9   ar
    27     9    10   ar
    28    10    35    1
    29    35    36    1
    30    36    37    1
    31    10    11   ar
    32    11    12   ar
    33    12    13    1
    34    17    18    1
    35    30    31   ar
    36    31    26   ar
    37    18    14    1
    38    12     1   ar
    39    11     5   ar
    40    37    35    1
    41    21    22    1
@<TRIPOS>MOLECULE
*****
 37 41 0 0 0
SMALL
GASTEIGER

@<TRIPOS>ATOM
      1 C         140.9613  139.5123  164.4468 C.ar    1  UNL1        0.0878
      2 C         141.7557  138.6157  165.3495 C.ar    1  UNL1        0.1543
      3 F         142.1861  137.2607  164.8711 F       1  UNL1       -0.2028
      4 C         142.1197  139.0740  166.7306 C.ar    1  UNL1        0.0356
      5 C         141.6893  140.4289  167.2089 C.ar    1  UNL1        0.0580
      6 C         142.0533  140.8872  168.5901 C.ar    1  UNL1        0.1996
      7 O         142.8477  139.9906  169.4928 O.2     1  UNL1       -0.2864
      8 C         141.6229  142.2422  169.0685 C.ar    1  UNL1        0.0701
      9 C         140.8285  143.1389  168.1657 C.ar    1  UNL1        0.0801
     10 N         140.4645  142.6805  166.7846 N.ar    1  UNL1       -0.3270
     11 C         140.8949  141.3256  166.3062 C.ar    1  UNL1        0.0750
     12 C         140.5309  140.8673  164.9252 C.ar    1  UNL1        0.0890
     13 CL        139.7365  141.7639  164.0223 Cl      1  UNL1       -0.0794
     14 C         140.6741  138.6429  160.6748 C.3     1  UNL1        0.0929
     15 C         139.4004  138.0548  161.2057 C.3     1  UNL1        0.0427
     16 C         139.3529  138.3089  162.6833 C.3     1  UNL1        0.0927
     17 N         140.5973  139.0540  163.0656 N.pl3   1  UNL1       -0.3033
     18 C         141.4139  139.2604  161.8244 C.3     1  UNL1        0.1104
     19 C         142.3400  137.8234  158.8574 C.2     1  UNL1        0.2245
     20 O         143.0976  137.0539  159.8987 O.2     1  UNL1       -0.2750
     21 N         141.1283  138.6178  159.2455 N.am    1  UNL1       -0.3042
     22 H         140.6312  139.1228  158.5621 H       1  UNL1        0.1494
     23 C         142.7943  137.7983  157.4281 C.3     1  UNL1        0.1113
     24 C         142.2366  136.7768  156.4817 C.3     1  UNL1        0.1366
     25 C         144.7853  132.3257  157.7356 C.3     1  UNL1        0.0540
     26 C         144.0379  133.3728  156.9642 C.ar    1  UNL1        0.0801
     27 C         143.6333  133.2848  155.5225 C.ar    1  UNL1        0.0308
     28 C         142.9093  134.5493  155.1662 C.ar    1  UNL1        0.0571
     29 C         142.3299  134.8853  153.8241 C.3     1  UNL1        0.0517
     30 N         142.8664  135.4187  156.3878 N.ar    1  UNL1       -0.2547
     31 N         143.5640  134.6915  157.4989 N.ar    1  UNL1       -0.1740
     32 C         141.9869  142.7005  170.4496 C.2     1  UNL1        0.0774
     33 O         143.1007  143.6863  170.6435 O.co2   1  UNL1       -0.5444
     34 O         141.2370  142.1730  171.6368 O.co2   1  UNL1       -0.5444
     35 C         139.6701  143.5772  165.8819 C.3     1  UNL1        0.0857
     36 C         139.6169  144.5962  164.7824 C.3     1  UNL1        0.0245
     37 C         138.3476  144.1113  165.4178 C.3     1  UNL1        0.0245
@<TRIPOS>UNITY_ATOM_ATTR
33 1
charge -1
@<TRIPOS>BOND
     1    25    26    1
     2    26    27   ar
     3    27    28   ar
     4    28    29    1
     5    28    30   ar
     6    30    24    1
     7    24    23    1
     8    23    19    1
     9    19    20    2
    10    19    21   am
    11    21    14    1
    12    14    15    1
    13    15    16    1
    14    16    17    1
    15    17     1    1
    16     1     2   ar
    17     2     3    1
    18     2     4   ar
    19     4     5   ar
    20     5     6   ar
    21     6     7    2
    22     6     8   ar
    23     8    32    1
    24    32    33   ar
    25    32    34   ar
    26     8     9   ar
    27     9    10   ar
    28    10    35    1
    29    35    36    1
    30    36    37    1
    31    10    11   ar
    32    11    12   ar
    33    12    13    1
    34    17    18    1
    35    30    31   ar
    36    31    26   ar
    37    18    14    1
    38    12     1   ar
    39    11     5   ar
    40    37    35    1
    41    21    22    1
@<TRIPOS>MOLECULE
*****
 37 41 0 0 0
SMALL
GASTEIGER

@<TRIPOS>ATOM
      1 C         142.9424  139.3668  164.2411 C.ar    1  UNL1        0.0878
      2 C         143.9780  138.9477  165.2420 C.ar    1  UNL1        0.1543
      3 F         145.3061  138.4299  164.7752 F       1  UNL1       -0.2028
      4 C         143.6854  139.0464  166.7099 C.ar    1  UNL1        0.0356
      5 C         142.3572  139.5642  167.1767 C.ar    1  UNL1        0.0580
      6 C         142.0647  139.6629  168.6447 C.ar    1  UNL1        0.1996
      7 O         143.1002  139.2438  169.6456 O.2     1  UNL1       -0.2864
      8 C         140.7365  140.1807  169.1115 C.ar    1  UNL1        0.0701
      9 C         139.7010  140.5998  168.1105 C.ar    1  UNL1        0.0801
     10 N         139.9936  140.5011  166.6426 N.ar    1  UNL1       -0.3270
     11 C         141.3217  139.9833  166.1758 C.ar    1  UNL1        0.0750
     12 C         141.6143  139.8846  164.7079 C.ar    1  UNL1        0.0890
     13 CL        140.5787  140.3037  163.7069 Cl      1  UNL1       -0.0794
     14 C         143.3497  138.4457  160.4925 C.3     1  UNL1        0.0929
     15 C         144.0207  139.7866  160.5361 C.3     1  UNL1        0.0427
     16 C         143.9498  140.2949  161.9456 C.3     1  UNL1        0.0927
     17 N         143.2350  139.2681  162.7731 N.pl3   1  UNL1       -0.3033
     18 C         142.8642  138.1253  161.8751 C.3     1  UNL1        0.1104
     19 C         142.1788  137.9307  158.2312 C.2     1  UNL1        0.2245
     20 O         141.3232  139.1518  158.3961 O.2     1  UNL1       -0.2750
     21 N         143.1920  137.5777  159.2794 N.am    1  UNL1       -0.3042
     22 H         143.7535  136.7763  159.1712 H       1  UNL1        0.1494
     23 C         142.0211  137.0627  157.0181 C.3     1  UNL1        0.1113
     24 C         143.2330  136.5062  156.3313 C.3     1  UNL1        0.1366
     25 C         144.5683  131.5009  157.3524 C.3     1  UNL1        0.0540
     26 C         144.0213  132.7212  156.6732 C.ar    1  UNL1        0.0801
     27 C         143.3307  132.7544  155.3420 C.ar    1  UNL1        0.0308
     28 C         142.9513  134.1763  155.0520 C.ar    1  UNL1        0.0571
     29 C         142.2406  134.6665  153.8253 C.3     1  UNL1        0.0517
     30 N         143.4075  135.0219  156.2038 N.ar    1  UNL1       -0.2547
     31 N         144.0687  134.1226  157.2058 N.ar    1  UNL1       -0.1740
     32 C         140.4439  140.2794  170.5794 C.2     1  UNL1        0.0774
     33 O         139.3555  139.4437  171.1850 O.co2   1  UNL1       -0.5444
     34 O         141.2398  141.2139  171.4416 O.co2   1  UNL1       -0.5444
     35 C         138.9580  140.9202  165.6417 C.3     1  UNL1        0.0857
     36 C         138.2735  141.9980  164.8545 C.3     1  UNL1        0.0245
     37 C         137.8489  140.5682  164.6951 C.3     1  UNL1        0.0245
@<TRIPOS>UNITY_ATOM_ATTR
33 1
charge -1
@<TRIPOS>BOND
     1    25    26    1
     2    26    27   ar
     3    27    28   ar
     4    28    29    1
     5    28    30   ar
     6    30    24    1
     7    24    23    1
     8    23    19    1
     9    19    20    2
    10    19    21   am
    11    21    14    1
    12    14    15    1
    13    15    16    1
    14    16    17    1
    15    17     1    1
    16     1     2   ar
    17     2     3    1
    18     2     4   ar
    19     4     5   ar
    20     5     6   ar
    21     6     7    2
    22     6     8   ar
    23     8    32    1
    24    32    33   ar
    25    32    34   ar
    26     8     9   ar
    27     9    10   ar
    28    10    35    1
    29    35    36    1
    30    36    37    1
    31    10    11   ar
    32    11    12   ar
    33    12    13    1
    34    17    18    1
    35    30    31   ar
    36    31    26   ar
    37    18    14    1
    38    12     1   ar
    39    11     5   ar
    40    37    35    1
    41    21    22    1
@<TRIPOS>MOLECULE
*****
 37 41 0 0 0
SMALL
GASTEIGER

@<TRIPOS>ATOM
      1 C         142.8731  141.4512  164.2983 C.ar    1  UNL1        0.0878
      2 C         143.8969  142.2140  165.0856 C.ar    1  UNL1        0.1543
      3 F         145.1338  142.7266  164.4093 F       1  UNL1       -0.2028
      4 C         143.6838  142.4643  166.5491 C.ar    1  UNL1        0.0356
      5 C         142.4469  141.9517  167.2253 C.ar    1  UNL1        0.0580
      6 C         142.2338  142.2020  168.6889 C.ar    1  UNL1        0.1996
      7 O         143.2576  142.9649  169.4762 O.2     1  UNL1       -0.2864
      8 C         140.9969  141.6895  169.3651 C.ar    1  UNL1        0.0701
      9 C         139.9730  140.9266  168.5778 C.ar    1  UNL1        0.0801
     10 N         140.1862  140.6763  167.1143 N.ar    1  UNL1       -0.3270
     11 C         141.4231  141.1889  166.4380 C.ar    1  UNL1        0.0750
     12 C         141.6362  140.9386  164.9745 C.ar    1  UNL1        0.0890
     13 CL        140.6123  140.1757  164.1872 Cl      1  UNL1       -0.0794
     14 C         143.5145  140.0856  160.7220 C.3     1  UNL1        0.0929
     15 C         143.3136  141.5457  160.4431 C.3     1  UNL1        0.0427
     16 C         143.0489  142.2349  161.7488 C.3     1  UNL1        0.0927
     17 N         143.0862  141.2009  162.8347 N.pl3   1  UNL1       -0.3033
     18 C         143.3739  139.8725  162.2001 C.3     1  UNL1        0.1104
     19 C         142.6757  138.3139  159.0168 C.2     1  UNL1        0.2245
     20 O         141.2559  138.6638  159.3517 O.2     1  UNL1       -0.2750
     21 N         143.8049  139.0248  159.7020 N.am    1  UNL1       -0.3042
     22 H         144.7367  138.7952  159.4822 H       1  UNL1        0.1494
     23 C         142.9661  137.2532  157.9968 C.3     1  UNL1        0.1113
     24 C         142.0012  137.0073  156.8749 C.3     1  UNL1        0.1366
     25 C         142.6435  131.8467  155.9607 C.3     1  UNL1        0.0540
     26 C         142.2043  133.2749  155.8295 C.ar    1  UNL1        0.0801
     27 C         141.3301  133.8323  154.7455 C.ar    1  UNL1        0.0308
     28 C         141.1476  135.2984  155.0052 C.ar    1  UNL1        0.0571
     29 C         140.3447  136.2489  154.1675 C.3     1  UNL1        0.0517
     30 N         141.9090  135.6469  156.2497 N.ar    1  UNL1       -0.2547
     31 N         142.5621  134.3963  156.7591 N.ar    1  UNL1       -0.1740
     32 C         140.7838  141.9397  170.8286 C.2     1  UNL1        0.0774
     33 O         139.7714  142.9518  171.2769 O.co2   1  UNL1       -0.5444
     34 O         141.5831  141.1780  171.8440 O.co2   1  UNL1       -0.5444
     35 C         139.1623  139.9135  166.3270 C.3     1  UNL1        0.0857
     36 C         138.0525  139.8898  165.3182 C.3     1  UNL1        0.0245
     37 C         138.4988  138.6159  165.9723 C.3     1  UNL1        0.0245
@<TRIPOS>UNITY_ATOM_ATTR
33 1
charge -1
@<TRIPOS>BOND
     1    25    26    1
     2    26    27   ar
     3    27    28   ar
     4    28    29    1
     5    28    30   ar
     6    30    24    1
     7    24    23    1
     8    23    19    1
     9    19    20    2
    10    19    21   am
    11    21    14    1
    12    14    15    1
    13    15    16    1
    14    16    17    1
    15    17     1    1
    16     1     2   ar
    17     2     3    1
    18     2     4   ar
    19     4     5   ar
    20     5     6   ar
    21     6     7    2
    22     6     8   ar
    23     8    32    1
    24    32    33   ar
    25    32    34   ar
    26     8     9   ar
    27     9    10   ar
    28    10    35    1
    29    35    36    1
    30    36    37    1
    31    10    11   ar
    32    11    12   ar
    33    12    13    1
    34    17    18    1
    35    30    31   ar
    36    31    26   ar
    37    18    14    1
    38    12     1   ar
    39    11     5   ar
    40    37    35    1
    41    21    22    1
@<TRIPOS>MOLECULE
*****
 37 41 0 0 0
SMALL
GASTEIGER

@<TRIPOS>ATOM
      1 C         141.8203  142.4068  163.8649 C.ar    1  UNL1        0.0878
      2 C         142.9297  143.1996  164.4901 C.ar    1  UNL1        0.1543
      3 F         143.6990  144.1905  163.6677 F       1  UNL1       -0.2028
      4 C         143.2697  143.0015  165.9375 C.ar    1  UNL1        0.0356
      5 C         142.5003  142.0106  166.7598 C.ar    1  UNL1        0.0580
      6 C         142.8404  141.8125  168.2073 C.ar    1  UNL1        0.1996
      7 O         143.9497  142.6053  168.8324 O.2     1  UNL1       -0.2864
      8 C         142.0710  140.8216  169.0296 C.ar    1  UNL1        0.0701
      9 C         140.9617  140.0287  168.4045 C.ar    1  UNL1        0.0801
     10 N         140.6217  140.2268  166.9570 N.ar    1  UNL1       -0.3270
     11 C         141.3910  141.2177  166.1347 C.ar    1  UNL1        0.0750
     12 C         141.0510  141.4159  164.6873 C.ar    1  UNL1        0.0890
     13 CL        139.9416  140.6230  164.0621 Cl      1  UNL1       -0.0794
     14 C         140.5966  143.5447  160.3616 C.3     1  UNL1        0.0929
     15 C         141.3175  142.2748  160.0185 C.3     1  UNL1        0.0427
     16 C         141.8636  141.6939  161.2890 C.3     1  UNL1        0.0927
     17 N         141.4803  142.6049  162.4174 N.pl3   1  UNL1       -0.3033
     18 C         140.6972  143.7487  161.8442 C.3     1  UNL1        0.1104
     19 C         140.6931  145.4019  158.5474 C.2     1  UNL1        0.2245
     20 O         142.1874  145.4457  158.6718 O.2     1  UNL1       -0.2750
     21 N         139.8978  144.4514  159.3923 N.am    1  UNL1       -0.3042
     22 H         138.9171  144.4226  159.3106 H       1  UNL1        0.1494
     23 C         139.9943  146.3086  157.5781 C.3     1  UNL1        0.1113
     24 C         139.7564  145.8578  156.1673 C.3     1  UNL1        0.1366
     25 C         139.7331  150.0967  153.0191 C.3     1  UNL1        0.0540
     26 C         140.0283  148.7364  153.5779 C.ar    1  UNL1        0.0801
     27 C         140.9194  147.7022  152.9563 C.ar    1  UNL1        0.0308
     28 C         140.9260  146.4980  153.8507 C.ar    1  UNL1        0.0571
     29 C         141.6863  145.2271  153.6125 C.3     1  UNL1        0.0517
     30 N         140.0390  146.7880  155.0250 N.ar    1  UNL1       -0.2547
     31 N         139.4842  148.1713  154.8564 N.ar    1  UNL1       -0.1740
     32 C         142.4110  140.6234  170.4771 C.2     1  UNL1        0.0774
     33 O         143.4985  139.6671  170.8680 O.co2   1  UNL1       -0.5444
     34 O         141.6635  141.3817  171.5337 O.co2   1  UNL1       -0.5444
     35 C         139.5124  139.4340  166.3319 C.3     1  UNL1        0.0857
     36 C         139.0530  138.2603  165.5187 C.3     1  UNL1        0.0245
     37 C         138.0504  139.2345  166.0624 C.3     1  UNL1        0.0245
@<TRIPOS>UNITY_ATOM_ATTR
33 1
charge -1
@<TRIPOS>BOND
     1    25    26    1
     2    26    27   ar
     3    27    28   ar
     4    28    29    1
     5    28    30   ar
     6    30    24    1
     7    24    23    1
     8    23    19    1
     9    19    20    2
    10    19    21   am
    11    21    14    1
    12    14    15    1
    13    15    16    1
    14    16    17    1
    15    17     1    1
    16     1     2   ar
    17     2     3    1
    18     2     4   ar
    19     4     5   ar
    20     5     6   ar
    21     6     7    2
    22     6     8   ar
    23     8    32    1
    24    32    33   ar
    25    32    34   ar
    26     8     9   ar
    27     9    10   ar
    28    10    35    1
    29    35    36    1
    30    36    37    1
    31    10    11   ar
    32    11    12   ar
    33    12    13    1
    34    17    18    1
    35    30    31   ar
    36    31    26   ar
    37    18    14    1
    38    12     1   ar
    39    11     5   ar
    40    37    35    1
    41    21    22    1
@<TRIPOS>MOLECULE
*****
 37 41 0 0 0
SMALL
GASTEIGER

@<TRIPOS>ATOM
      1 C         142.9256  141.3304  164.3302 C.ar    1  UNL1        0.0878
      2 C         143.9122  142.1440  165.1142 C.ar    1  UNL1        0.1543
      3 F         145.1510  142.6658  164.4486 F       1  UNL1       -0.2028
      4 C         143.6600  142.4356  166.5638 C.ar    1  UNL1        0.0356
      5 C         142.4212  141.9138  167.2293 C.ar    1  UNL1        0.0580
      6 C         142.1691  142.2055  168.6790 C.ar    1  UNL1        0.1996
      7 O         143.1557  143.0190  169.4630 O.2     1  UNL1       -0.2864
      8 C         140.9303  141.6836  169.3446 C.ar    1  UNL1        0.0701
      9 C         139.9436  140.8700  168.5605 C.ar    1  UNL1        0.0801
     10 N         140.1958  140.5783  167.1110 N.ar    1  UNL1       -0.3270
     11 C         141.4346  141.1002  166.4454 C.ar    1  UNL1        0.0750
     12 C         141.6868  140.8085  164.9958 C.ar    1  UNL1        0.0890
     13 CL        140.7001  139.9949  164.2118 Cl      1  UNL1       -0.0794
     14 C         143.1380  141.1752  160.4577 C.3     1  UNL1        0.0929
     15 C         143.9934  140.0045  160.8421 C.3     1  UNL1        0.0427
     16 C         144.0180  139.9202  162.3395 C.3     1  UNL1        0.0927
     17 N         143.1777  141.0387  162.8806 N.pl3   1  UNL1       -0.3033
     18 C         142.6338  141.8143  161.7176 C.3     1  UNL1        0.1104
     19 C         143.8778  142.3715  158.2733 C.2     1  UNL1        0.2245
     20 O         145.2155  142.6634  158.8862 O.2     1  UNL1       -0.2750
     21 N         142.8391  141.6273  159.0590 N.am    1  UNL1       -0.3042
     22 H         141.9612  141.4357  158.6567 H       1  UNL1        0.1494
     23 C         143.5790  142.8236  156.8746 C.3     1  UNL1        0.1113
     24 C         144.1742  142.0937  155.7071 C.3     1  UNL1        0.1366
     25 C         149.4348  141.7357  155.4288 C.3     1  UNL1        0.0540
     26 C         148.0202  142.1738  155.1906 C.ar    1  UNL1        0.0801
     27 C         147.5789  143.2561  154.2504 C.ar    1  UNL1        0.0308
     28 C         146.0844  143.3578  154.3295 C.ar    1  UNL1        0.0571
     29 C         145.2234  144.3114  153.5554 C.3     1  UNL1        0.0517
     30 N         145.6022  142.3384  155.3185 N.ar    1  UNL1       -0.2547
     31 N         146.7986  141.6067  155.8507 N.ar    1  UNL1       -0.1740
     32 C         140.6781  141.9753  170.7941 C.2     1  UNL1        0.0774
     33 O         139.6859  143.0300  171.1854 O.co2   1  UNL1       -0.5444
     34 O         141.4181  141.2122  171.8526 O.co2   1  UNL1       -0.5444
     35 C         139.2092  139.7648  166.3270 C.3     1  UNL1        0.0857
     36 C         138.6598  138.4304  165.9178 C.3     1  UNL1        0.0245
     37 C         138.0497  139.6900  165.3784 C.3     1  UNL1        0.0245
@<TRIPOS>UNITY_ATOM_ATTR
33 1
charge -1
@<TRIPOS>BOND
     1    25    26    1
     2    26    27   ar
     3    27    28   ar
     4    28    29    1
     5    28    30   ar
     6    30    24    1
     7    24    23    1
     8    23    19    1
     9    19    20    2
    10    19    21   am
    11    21    14    1
    12    14    15    1
    13    15    16    1
    14    16    17    1
    15    17     1    1
    16     1     2   ar
    17     2     3    1
    18     2     4   ar
    19     4     5   ar
    20     5     6   ar
    21     6     7    2
    22     6     8   ar
    23     8    32    1
    24    32    33   ar
    25    32    34   ar
    26     8     9   ar
    27     9    10   ar
    28    10    35    1
    29    35    36    1
    30    36    37    1
    31    10    11   ar
    32    11    12   ar
    33    12    13    1
    34    17    18    1
    35    30    31   ar
    36    31    26   ar
    37    18    14    1
    38    12     1   ar
    39    11     5   ar
    40    37    35    1
    41    21    22    1
@<TRIPOS>MOLECULE
*****
 37 41 0 0 0
SMALL
GASTEIGER

@<TRIPOS>ATOM
      1 C         142.9234  141.1438  164.5977 C.ar    1  UNL1        0.0878
      2 C         143.8814  142.0060  165.3649 C.ar    1  UNL1        0.1543
      3 F         145.1618  142.4563  164.7262 F       1  UNL1       -0.2028
      4 C         143.5592  142.4178  166.7707 C.ar    1  UNL1        0.0356
      5 C         142.2788  141.9675  167.4094 C.ar    1  UNL1        0.0580
      6 C         141.9565  142.3794  168.8153 C.ar    1  UNL1        0.1996
      7 O         142.9146  143.2416  169.5825 O.2     1  UNL1       -0.2864
      8 C         140.6762  141.9291  169.4539 C.ar    1  UNL1        0.0701
      9 C         139.7180  141.0669  168.6866 C.ar    1  UNL1        0.0801
     10 N         140.0403  140.6550  167.2808 N.ar    1  UNL1       -0.3270
     11 C         141.3207  141.1053  166.6422 C.ar    1  UNL1        0.0750
     12 C         141.6430  140.6935  165.2363 C.ar    1  UNL1        0.0890
     13 CL        140.6849  139.8312  164.4690 Cl      1  UNL1       -0.0794
     14 C         143.3733  140.6975  160.7683 C.3     1  UNL1        0.0929
     15 C         144.1096  139.4986  161.2883 C.3     1  UNL1        0.0427
     16 C         144.0307  139.5198  162.7861 C.3     1  UNL1        0.0927
     17 N         143.2456  140.7319  163.1917 N.pl3   1  UNL1       -0.3033
     18 C         142.8393  141.4597  161.9447 C.3     1  UNL1        0.1104
     19 C         144.1378  142.0516  158.6869 C.2     1  UNL1        0.2245
     20 O         145.2465  142.6626  159.4916 O.2     1  UNL1       -0.2750
     21 N         143.2012  141.0690  159.3252 N.am    1  UNL1       -0.3042
     22 H         142.4736  140.6680  158.7971 H       1  UNL1        0.1494
     23 C         143.9657  142.4231  157.2439 C.3     1  UNL1        0.1113
     24 C         142.9790  143.4838  156.8550 C.3     1  UNL1        0.1366
     25 C         140.2266  145.7646  160.7412 C.3     1  UNL1        0.0540
     26 C         140.5983  144.8974  159.5751 C.ar    1  UNL1        0.0801
     27 C         139.6952  143.9245  158.8767 C.ar    1  UNL1        0.0308
     28 C         140.4770  143.2766  157.7727 C.ar    1  UNL1        0.0571
     29 C         139.9628  142.2385  156.8198 C.3     1  UNL1        0.0517
     30 N         141.8634  143.8490  157.7888 N.ar    1  UNL1       -0.2547
     31 N         141.9383  144.8507  158.9028 N.ar    1  UNL1       -0.1740
     32 C         140.3539  142.3410  170.8598 C.2     1  UNL1        0.0774
     33 O         141.1871  141.8343  171.9995 O.co2   1  UNL1       -0.5444
     34 O         139.1983  143.2596  171.1260 O.co2   1  UNL1       -0.5444
     35 C         139.0822  139.7928  166.5136 C.3     1  UNL1        0.0857
     36 C         138.0284  139.6446  165.4565 C.3     1  UNL1        0.0245
     37 C         138.4766  138.4478  166.2418 C.3     1  UNL1        0.0245
@<TRIPOS>UNITY_ATOM_ATTR
33 1
charge -1
@<TRIPOS>BOND
     1    25    26    1
     2    26    27   ar
     3    27    28   ar
     4    28    29    1
     5    28    30   ar
     6    30    24    1
     7    24    23    1
     8    23    19    1
     9    19    20    2
    10    19    21   am
    11    21    14    1
    12    14    15    1
    13    15    16    1
    14    16    17    1
    15    17     1    1
    16     1     2   ar
    17     2     3    1
    18     2     4   ar
    19     4     5   ar
    20     5     6   ar
    21     6     7    2
    22     6     8   ar
    23     8    32    1
    24    32    33   ar
    25    32    34   ar
    26     8     9   ar
    27     9    10   ar
    28    10    35    1
    29    35    36    1
    30    36    37    1
    31    10    11   ar
    32    11    12   ar
    33    12    13    1
    34    17    18    1
    35    30    31   ar
    36    31    26   ar
    37    18    14    1
    38    12     1   ar
    39    11     5   ar
    40    37    35    1
    41    21    22    1
@<TRIPOS>MOLECULE
*****
 37 41 0 0 0
SMALL
GASTEIGER

@<TRIPOS>ATOM
      1 C         142.9131  141.5247  164.3521 C.ar    1  UNL1        0.0878
      2 C         143.9114  142.2990  165.1606 C.ar    1  UNL1        0.1543
      3 F         145.1511  142.8350  164.5080 F       1  UNL1       -0.2028
      4 C         143.6700  142.5374  166.6217 C.ar    1  UNL1        0.0356
      5 C         142.4303  142.0014  167.2743 C.ar    1  UNL1        0.0580
      6 C         142.1890  142.2398  168.7355 C.ar    1  UNL1        0.1996
      7 O         143.1873  143.0141  169.5440 O.2     1  UNL1       -0.2864
      8 C         140.9493  141.7038  169.3881 C.ar    1  UNL1        0.0701
      9 C         139.9509  140.9295  168.5795 C.ar    1  UNL1        0.0801
     10 N         140.1923  140.6911  167.1184 N.ar    1  UNL1       -0.3270
     11 C         141.4320  141.2271  166.4658 C.ar    1  UNL1        0.0750
     12 C         141.6734  140.9887  165.0047 C.ar    1  UNL1        0.0890
     13 CL        140.6751  140.2144  164.1961 Cl      1  UNL1       -0.0794
     14 C         143.5465  140.1800  160.7665 C.3     1  UNL1        0.0929
     15 C         143.5052  141.6588  160.5184 C.3     1  UNL1        0.0427
     16 C         143.2629  142.3425  161.8314 C.3     1  UNL1        0.0927
     17 N         143.1545  141.2863  162.8909 N.pl3   1  UNL1       -0.3033
     18 C         143.3298  139.9498  162.2328 C.3     1  UNL1        0.1104
     19 C         142.5918  138.4866  159.0429 C.2     1  UNL1        0.2245
     20 O         141.1979  138.9173  159.3918 O.2     1  UNL1       -0.2750
     21 N         143.7661  139.1180  159.7303 N.am    1  UNL1       -0.3042
     22 H         144.6809  138.8353  159.5013 H       1  UNL1        0.1494
     23 C         142.8114  137.4245  158.0067 C.3     1  UNL1        0.1113
     24 C         142.9906  137.8067  156.5673 C.3     1  UNL1        0.1366
     25 C         146.7713  141.2873  155.3543 C.3     1  UNL1        0.0540
     26 C         145.4317  140.6829  155.6546 C.ar    1  UNL1        0.0801
     27 C         144.1207  141.4115  155.6767 C.ar    1  UNL1        0.0308
     28 C         143.0467  140.4227  156.0213 C.ar    1  UNL1        0.0571
     29 C         141.5825  140.7212  156.1521 C.3     1  UNL1        0.0517
     30 N         143.6939  139.0831  156.2121 N.ar    1  UNL1       -0.2547
     31 N         145.1679  139.2440  155.9855 N.ar    1  UNL1       -0.1740
     32 C         140.7079  141.9422  170.8492 C.2     1  UNL1        0.0774
     33 O         141.5005  141.1856  171.8735 O.co2   1  UNL1       -0.5444
     34 O         139.6738  142.9372  171.2860 O.co2   1  UNL1       -0.5444
     35 C         139.1940  139.9168  166.3099 C.3     1  UNL1        0.0857
     36 C         138.6042  138.6048  165.8847 C.3     1  UNL1        0.0245
     37 C         138.0547  139.8876  165.3347 C.3     1  UNL1        0.0245
@<TRIPOS>UNITY_ATOM_ATTR
33 1
charge -1
@<TRIPOS>BOND
     1    25    26    1
     2    26    27   ar
     3    27    28   ar
     4    28    29    1
     5    28    30   ar
     6    30    24    1
     7    24    23    1
     8    23    19    1
     9    19    20    2
    10    19    21   am
    11    21    14    1
    12    14    15    1
    13    15    16    1
    14    16    17    1
    15    17     1    1
    16     1     2   ar
    17     2     3    1
    18     2     4   ar
    19     4     5   ar
    20     5     6   ar
    21     6     7    2
    22     6     8   ar
    23     8    32    1
    24    32    33   ar
    25    32    34   ar
    26     8     9   ar
    27     9    10   ar
    28    10    35    1
    29    35    36    1
    30    36    37    1
    31    10    11   ar
    32    11    12   ar
    33    12    13    1
    34    17    18    1
    35    30    31   ar
    36    31    26   ar
    37    18    14    1
    38    12     1   ar
    39    11     5   ar
    40    37    35    1
    41    21    22    1
@<TRIPOS>MOLECULE
*****
 37 41 0 0 0
SMALL
GASTEIGER

@<TRIPOS>ATOM
      1 C         142.8668  140.6335  164.5259 C.ar    1  UNL1        0.0878
      2 C         143.8447  141.5210  165.2371 C.ar    1  UNL1        0.1543
      3 F         145.1441  141.8827  164.5808 F       1  UNL1       -0.2028
      4 C         143.5232  142.0469  166.6046 C.ar    1  UNL1        0.0356
      5 C         142.2238  141.6852  167.2609 C.ar    1  UNL1        0.0580
      6 C         141.9023  142.2110  168.6284 C.ar    1  UNL1        0.1996
      7 O         142.8803  143.0986  169.3397 O.2     1  UNL1       -0.2864
      8 C         140.6029  141.8493  169.2847 C.ar    1  UNL1        0.0701
      9 C         139.6250  140.9618  168.5734 C.ar    1  UNL1        0.0801
     10 N         139.9465  140.4359  167.2059 N.ar    1  UNL1       -0.3270
     11 C         141.2459  140.7976  166.5496 C.ar    1  UNL1        0.0750
     12 C         141.5674  140.2718  165.1821 C.ar    1  UNL1        0.0890
     13 CL        140.5894  139.3842  164.4708 Cl      1  UNL1       -0.0794
     14 C         143.4341  139.9373  160.7497 C.3     1  UNL1        0.0929
     15 C         143.9316  138.6595  161.3580 C.3     1  UNL1        0.0427
     16 C         143.7796  138.7648  162.8466 C.3     1  UNL1        0.0927
     17 N         143.1882  140.1076  163.1583 N.pl3   1  UNL1       -0.3033
     18 C         142.9747  140.8322  161.8624 C.3     1  UNL1        0.1104
     19 C         142.1660  139.9839  158.4826 C.2     1  UNL1        0.2245
     20 O         140.9627  139.3793  159.1433 O.2     1  UNL1       -0.2750
     21 N         143.4018  140.2629  159.2859 N.am    1  UNL1       -0.3042
     22 H         144.1916  140.6597  158.8523 H       1  UNL1        0.1494
     23 C         142.1337  140.3095  157.0187 C.3     1  UNL1        0.1113
     24 C         141.7290  139.2605  156.0258 C.3     1  UNL1        0.1366
     25 C         142.8418  134.1312  156.6018 C.3     1  UNL1        0.0540
     26 C         142.9582  135.5862  156.2561 C.ar    1  UNL1        0.0801
     27 C         144.1440  136.2492  155.6205 C.ar    1  UNL1        0.0308
     28 C         143.8279  137.7063  155.4568 C.ar    1  UNL1        0.0571
     29 C         144.7340  138.7438  154.8629 C.3     1  UNL1        0.0517
     30 N         142.4467  137.9438  155.9914 N.ar    1  UNL1       -0.2547
     31 N         141.9092  136.6335  156.4853 N.ar    1  UNL1       -0.1740
     32 C         140.2814  142.3752  170.6522 C.2     1  UNL1        0.0774
     33 O         140.6311  141.5683  171.8674 O.co2   1  UNL1       -0.5444
     34 O         139.6102  143.7080  170.8046 O.co2   1  UNL1       -0.5444
     35 C         138.9685  139.5484  166.4947 C.3     1  UNL1        0.0857
     36 C         138.2438  138.2397  166.3846 C.3     1  UNL1        0.0245
     37 C         137.9994  139.3198  165.3729 C.3     1  UNL1        0.0245
@<TRIPOS>UNITY_ATOM_ATTR
33 1
charge -1
@<TRIPOS>BOND
     1    25    26    1
     2    26    27   ar
     3    27    28   ar
     4    28    29    1
     5    28    30   ar
     6    30    24    1
     7    24    23    1
     8    23    19    1
     9    19    20    2
    10    19    21   am
    11    21    14    1
    12    14    15    1
    13    15    16    1
    14    16    17    1
    15    17     1    1
    16     1     2   ar
    17     2     3    1
    18     2     4   ar
    19     4     5   ar
    20     5     6   ar
    21     6     7    2
    22     6     8   ar
    23     8    32    1
    24    32    33   ar
    25    32    34   ar
    26     8     9   ar
    27     9    10   ar
    28    10    35    1
    29    35    36    1
    30    36    37    1
    31    10    11   ar
    32    11    12   ar
    33    12    13    1
    34    17    18    1
    35    30    31   ar
    36    31    26   ar
    37    18    14    1
    38    12     1   ar
    39    11     5   ar
    40    37    35    1
    41    21    22    1
