@<TRIPOS>MOLECULE
*****
 37 40 0 0 0
SMALL
GASTEIGER

@<TRIPOS>ATOM
      1 N         139.2464  138.1802  159.8676 N.am    1  UNL1       -0.3018
      2 C         140.3389  138.7319  159.0003 C.2     1  UNL1        0.2426
      3 O         141.4307  139.5626  159.6068 O.2     1  UNL1       -0.2733
      4 H         138.5298  137.6350  159.4695 H       1  UNL1        0.1495
      5 N         139.2446  138.8541  163.4257 N.3     1  UNL1       -0.2711
      6 C         138.6382  139.5113  162.2213 C.3     1  UNL1        0.0933
      7 C         139.2457  138.4594  161.3414 C.3     1  UNL1        0.1035
      8 C         139.8521  137.8022  162.5457 C.3     1  UNL1        0.0933
      9 C         139.2426  139.6915  167.8470 C.3     1  UNL1        0.1288
     10 O         138.3790  139.4830  169.0556 O.3     1  UNL1       -0.3807
     11 C         140.4058  140.1209  167.0029 C.3     1  UNL1        0.0346
     12 C         140.4065  139.8418  165.5292 C.3     1  UNL1        0.0188
     13 C         139.2439  139.1333  164.8995 C.3     1  UNL1        0.0578
     14 C         138.0808  138.7038  165.7436 C.3     1  UNL1        0.0188
     15 C         138.0801  138.9829  167.2174 C.3     1  UNL1        0.0346
     16 H         138.8197  139.8543  169.8359 H       1  UNL1        0.2108
     17 C         142.5169  143.0158  170.3188 C.3     1  UNL1        0.0398
     18 C         141.6102  141.8556  170.0327 C.ar    1  UNL1        0.0279
     19 C         141.2547  140.7573  170.9904 C.ar    1  UNL1        0.1013
     20 N         140.3246  139.8129  170.2883 N.ar    1  UNL1       -0.2392
     21 C         140.1052  140.3276  168.8965 C.ar    1  UNL1        0.1120
     22 S         140.8997  141.5901  168.7386 S.2     1  UNL1       -0.0729
     23 C         140.3397  138.4527  157.5265 C.3     1  UNL1        0.1759
     24 N         140.7601  137.1054  157.0186 N.am    1  UNL1       -0.2931
     25 C         142.2168  136.7866  156.8553 C.2     1  UNL1        0.2462
     26 O         143.2529  137.8150  157.2000 O.2     1  UNL1       -0.2701
     27 H         140.0801  136.4304  156.7925 H       1  UNL1        0.1502
     28 C         142.6372  135.4393  156.3475 C.ar    1  UNL1        0.0533
     29 C         142.1328  134.9459  155.0238 C.ar    1  UNL1        0.0045
     30 C         142.5534  133.5985  154.5159 C.ar    1  UNL1        0.0001
     31 C         143.4782  132.7447  155.3317 C.ar    1  UNL1        0.0039
     32 C         143.9826  133.2381  156.6553 C.ar    1  UNL1        0.0716
     33 C         143.5622  134.5854  157.1632 C.ar    1  UNL1        0.0084
     34 C         144.9075  132.3843  157.4711 C.3     1  UNL1        0.4186
     35 F         145.8324  131.5303  158.2869 F       1  UNL1       -0.1659
     36 F         145.0917  131.4650  156.3001 F       1  UNL1       -0.1659
     37 F         144.7233  133.3034  158.6420 F       1  UNL1       -0.1659
@<TRIPOS>BOND
     1    17    18    1
     2    18    19   ar
     3    19    20   ar
     4    20    21   ar
     5    21     9    1
     6     9    10    1
     7     9    11    1
     8    11    12    1
     9    12    13    1
    10    13     5    1
    11     5     6    1
    12     6     7    1
    13     7     1    1
    14     1     2   am
    15     2     3    2
    16     2    23    1
    17    23    24    1
    18    24    25   am
    19    25    26    2
    20    25    28    1
    21    28    29   ar
    22    29    30   ar
    23    30    31   ar
    24    31    32   ar
    25    32    34    1
    26    34    35    1
    27    34    36    1
    28    34    37    1
    29    32    33   ar
    30     7     8    1
    31    13    14    1
    32    14    15    1
    33    21    22   ar
    34    22    18   ar
    35    15     9    1
    36     8     5    1
    37    33    28   ar
    38    10    16    1
    39     1     4    1
    40    24    27    1
@<TRIPOS>MOLECULE
*****
 37 40 0 0 0
SMALL
GASTEIGER

@<TRIPOS>ATOM
      1 N         143.8412  138.7365  159.7995 N.am    1  UNL1       -0.3018
      2 C         142.7842  139.1612  158.8236 C.2     1  UNL1        0.2426
      3 O         141.5451  139.8505  159.3130 O.2     1  UNL1       -0.2733
      4 H         144.6545  138.2840  159.4784 H       1  UNL1        0.1495
      5 N         143.4016  139.3752  163.3368 N.3     1  UNL1       -0.2711
      6 C         144.2483  139.9671  162.2493 C.3     1  UNL1        0.0933
      7 C         143.6591  139.0010  161.2647 C.3     1  UNL1        0.1035
      8 C         142.8123  138.4091  162.3522 C.3     1  UNL1        0.0933
      9 C         142.8551  140.1689  167.7324 C.3     1  UNL1        0.1288
     10 O         142.8911  139.4426  169.0444 O.3     1  UNL1       -0.3807
     11 C         142.7098  141.2882  166.7445 C.3     1  UNL1        0.0346
     12 C         142.8919  141.0236  165.2793 C.3     1  UNL1        0.0188
     13 C         143.2194  139.6398  164.8021 C.3     1  UNL1        0.0578
     14 C         143.3648  138.5205  165.7901 C.3     1  UNL1        0.0188
     15 C         143.1826  138.7851  167.2552 C.3     1  UNL1        0.0346
     16 H         142.6999  140.0647  169.7637 H       1  UNL1        0.2108
     17 C         140.3939  144.2137  170.0699 C.3     1  UNL1        0.0398
     18 C         141.4089  143.1597  169.7398 C.ar    1  UNL1        0.0279
     19 C         142.7020  142.9239  170.4623 C.ar    1  UNL1        0.1013
     20 N         143.4012  141.7749  169.7983 N.ar    1  UNL1       -0.2392
     21 C         142.5401  141.3005  168.6653 C.ar    1  UNL1        0.1120
     22 S         141.3088  142.1564  168.6292 S.2     1  UNL1       -0.0729
     23 C         142.9663  138.8966  157.3584 C.3     1  UNL1        0.1759
     24 N         143.3889  137.5362  156.8889 N.am    1  UNL1       -0.2931
     25 C         142.3550  136.4922  156.5869 C.2     1  UNL1        0.2462
     26 O         140.8984  136.8087  156.7546 O.2     1  UNL1       -0.2701
     27 H         144.3450  137.3285  156.7788 H       1  UNL1        0.1502
     28 C         142.7777  135.1318  156.1174 C.ar    1  UNL1        0.0533
     29 C         142.3467  134.6365  154.7687 C.ar    1  UNL1        0.0045
     30 C         142.7694  133.2760  154.2992 C.ar    1  UNL1        0.0001
     31 C         143.6231  132.4109  155.1783 C.ar    1  UNL1        0.0039
     32 C         144.0540  132.9062  156.5269 C.ar    1  UNL1        0.0716
     33 C         143.6313  134.2666  156.9965 C.ar    1  UNL1        0.0084
     34 C         144.9076  132.0411  157.4060 C.3     1  UNL1        0.4186
     35 F         145.7613  131.1760  158.2852 F       1  UNL1       -0.1659
     36 F         144.8531  133.0828  158.4840 F       1  UNL1       -0.1659
     37 F         144.9622  130.9995  156.3281 F       1  UNL1       -0.1659
@<TRIPOS>BOND
     1    17    18    1
     2    18    19   ar
     3    19    20   ar
     4    20    21   ar
     5    21     9    1
     6     9    10    1
     7     9    11    1
     8    11    12    1
     9    12    13    1
    10    13     5    1
    11     5     6    1
    12     6     7    1
    13     7     1    1
    14     1     2   am
    15     2     3    2
    16     2    23    1
    17    23    24    1
    18    24    25   am
    19    25    26    2
    20    25    28    1
    21    28    29   ar
    22    29    30   ar
    23    30    31   ar
    24    31    32   ar
    25    32    34    1
    26    34    35    1
    27    34    36    1
    28    34    37    1
    29    32    33   ar
    30     7     8    1
    31    13    14    1
    32    14    15    1
    33    21    22   ar
    34    22    18   ar
    35    15     9    1
    36     8     5    1
    37    33    28   ar
    38    10    16    1
    39     1     4    1
    40    24    27    1
@<TRIPOS>MOLECULE
*****
 37 40 0 0 0
SMALL
GASTEIGER

@<TRIPOS>ATOM
      1 N         138.8411  143.1716  159.0143 N.am    1  UNL1       -0.3018
      2 C         140.0968  143.6625  158.3567 C.2     1  UNL1        0.2426
      3 O         141.4092  143.5609  159.0760 O.2     1  UNL1       -0.2733
      4 H         137.9798  143.2383  158.5423 H       1  UNL1        0.1495
      5 N         138.9782  141.7413  162.3383 N.3     1  UNL1       -0.2711
      6 C         139.6574  141.4555  161.0318 C.3     1  UNL1        0.0933
      7 C         138.8979  142.5792  160.3912 C.3     1  UNL1        0.1035
      8 C         138.2186  142.8649  161.6977 C.3     1  UNL1        0.0933
      9 C         139.1484  139.9640  166.4690 C.3     1  UNL1        0.1288
     10 O         138.4901  138.8928  167.2870 O.3     1  UNL1       -0.3807
     11 C         140.0655  141.0920  166.0995 C.3     1  UNL1        0.0346
     12 C         140.0087  141.6844  164.7226 C.3     1  UNL1        0.0188
     13 C         139.0349  141.1488  163.7153 C.3     1  UNL1        0.0578
     14 C         138.1178  140.0208  164.0847 C.3     1  UNL1        0.0188
     15 C         138.1746  139.4284  165.4616 C.3     1  UNL1        0.0346
     16 H         138.8803  138.8783  168.1749 H       1  UNL1        0.2108
     17 C         143.0320  140.7269  169.9643 C.3     1  UNL1        0.0398
     18 C         141.6786  140.4782  169.3671 C.ar    1  UNL1        0.0279
     19 C         140.4018  140.2799  170.1288 C.ar    1  UNL1        0.1013
     20 N         139.2985  140.0632  169.1359 N.ar    1  UNL1       -0.2392
     21 C         139.8936  140.1275  167.7605 C.ar    1  UNL1        0.1120
     22 S         141.3646  140.3839  167.9034 S.2     1  UNL1       -0.0729
     23 C         140.0400  144.2550  156.9799 C.3     1  UNL1        0.1759
     24 N         140.0592  145.7444  156.8029 N.am    1  UNL1       -0.2931
     25 C         139.0187  146.4123  155.9536 C.2     1  UNL1        0.2462
     26 O         137.9591  145.5907  155.2811 O.2     1  UNL1       -0.2701
     27 H         140.7547  146.2836  157.2443 H       1  UNL1        0.1502
     28 C         139.0379  147.9016  155.7767 C.ar    1  UNL1        0.0533
     29 C         138.4045  148.7876  156.8081 C.ar    1  UNL1        0.0045
     30 C         138.4237  150.2771  156.6311 C.ar    1  UNL1        0.0001
     31 C         139.0762  150.8805  155.4228 C.ar    1  UNL1        0.0039
     32 C         139.7096  149.9944  154.3914 C.ar    1  UNL1        0.0716
     33 C         139.6904  148.5051  154.5683 C.ar    1  UNL1        0.0084
     34 C         140.3621  150.5978  153.1830 C.3     1  UNL1        0.4186
     35 F         141.0147  151.2012  151.9746 F       1  UNL1       -0.1659
     36 F         139.6862  149.5817  152.3107 F       1  UNL1       -0.1659
     37 F         141.0380  151.6138  154.0553 F       1  UNL1       -0.1659
@<TRIPOS>BOND
     1    17    18    1
     2    18    19   ar
     3    19    20   ar
     4    20    21   ar
     5    21     9    1
     6     9    10    1
     7     9    11    1
     8    11    12    1
     9    12    13    1
    10    13     5    1
    11     5     6    1
    12     6     7    1
    13     7     1    1
    14     1     2   am
    15     2     3    2
    16     2    23    1
    17    23    24    1
    18    24    25   am
    19    25    26    2
    20    25    28    1
    21    28    29   ar
    22    29    30   ar
    23    30    31   ar
    24    31    32   ar
    25    32    34    1
    26    34    35    1
    27    34    36    1
    28    34    37    1
    29    32    33   ar
    30     7     8    1
    31    13    14    1
    32    14    15    1
    33    21    22   ar
    34    22    18   ar
    35    15     9    1
    36     8     5    1
    37    33    28   ar
    38    10    16    1
    39     1     4    1
    40    24    27    1
@<TRIPOS>MOLECULE
*****
 37 40 0 0 0
SMALL
GASTEIGER

@<TRIPOS>ATOM
      1 N         140.9029  138.1393  159.7628 N.am    1  UNL1       -0.3018
      2 C         142.3103  138.1907  159.2464 C.2     1  UNL1        0.2426
      3 O         143.4365  138.5433  160.1723 O.2     1  UNL1       -0.2733
      4 H         140.1637  137.9078  159.1551 H       1  UNL1        0.1495
      5 N         140.2241  138.8662  163.2448 N.3     1  UNL1       -0.2711
      6 C         139.9685  139.5699  161.9450 C.3     1  UNL1        0.0933
      7 C         140.6217  138.4404  161.2051 C.3     1  UNL1        0.1035
      8 C         140.8773  137.7367  162.5049 C.3     1  UNL1        0.0933
      9 C         139.3807  139.7695  167.5718 C.3     1  UNL1        0.1288
     10 O         138.3700  139.4567  168.6351 O.3     1  UNL1       -0.3807
     11 C         140.5929  140.3511  166.9067 C.3     1  UNL1        0.0346
     12 C         140.8740  140.0500  165.4644 C.3     1  UNL1        0.0188
     13 C         139.9429  139.1673  164.6872 C.3     1  UNL1        0.0578
     14 C         138.7308  138.5857  165.3523 C.3     1  UNL1        0.0188
     15 C         138.4497  138.8868  166.7946 C.3     1  UNL1        0.0346
     16 H         138.6199  139.9021  169.4598 H       1  UNL1        0.2108
     17 C         142.6636  142.6591  170.5306 C.3     1  UNL1        0.0398
     18 C         141.4696  141.8717  170.0784 C.ar    1  UNL1        0.0279
     19 C         140.2365  141.5976  170.8871 C.ar    1  UNL1        0.1013
     20 N         139.3039  140.7767  170.0466 N.ar    1  UNL1       -0.2392
     21 C         139.9607  140.5435  168.7183 C.ar    1  UNL1        0.1120
     22 S         141.2992  141.2203  168.7380 S.2     1  UNL1       -0.0729
     23 C         142.5915  137.8896  157.8041 C.3     1  UNL1        0.1759
     24 N         142.8954  136.4843  157.3768 N.am    1  UNL1       -0.2931
     25 C         142.0667  135.8281  156.3125 C.2     1  UNL1        0.2462
     26 O         140.9340  136.5773  155.6755 O.2     1  UNL1       -0.2701
     27 H         143.6388  135.9926  157.7949 H       1  UNL1        0.1502
     28 C         142.3706  134.4228  155.8852 C.ar    1  UNL1        0.0533
     29 C         143.7252  133.8350  156.1491 C.ar    1  UNL1        0.0045
     30 C         144.0292  132.4296  155.7217 C.ar    1  UNL1        0.0001
     31 C         142.9785  131.6121  155.0305 C.ar    1  UNL1        0.0039
     32 C         141.6240  132.1999  154.7666 C.ar    1  UNL1        0.0716
     33 C         141.3200  133.6052  155.1940 C.ar    1  UNL1        0.0084
     34 C         140.5734  131.3823  154.0754 C.3     1  UNL1        0.4186
     35 F         139.5227  130.5647  153.3842 F       1  UNL1       -0.1659
     36 F         140.4505  130.5124  155.2913 F       1  UNL1       -0.1659
     37 F         140.6962  132.2523  152.8597 F       1  UNL1       -0.1659
@<TRIPOS>BOND
     1    17    18    1
     2    18    19   ar
     3    19    20   ar
     4    20    21   ar
     5    21     9    1
     6     9    10    1
     7     9    11    1
     8    11    12    1
     9    12    13    1
    10    13     5    1
    11     5     6    1
    12     6     7    1
    13     7     1    1
    14     1     2   am
    15     2     3    2
    16     2    23    1
    17    23    24    1
    18    24    25   am
    19    25    26    2
    20    25    28    1
    21    28    29   ar
    22    29    30   ar
    23    30    31   ar
    24    31    32   ar
    25    32    34    1
    26    34    35    1
    27    34    36    1
    28    34    37    1
    29    32    33   ar
    30     7     8    1
    31    13    14    1
    32    14    15    1
    33    21    22   ar
    34    22    18   ar
    35    15     9    1
    36     8     5    1
    37    33    28   ar
    38    10    16    1
    39     1     4    1
    40    24    27    1
@<TRIPOS>MOLECULE
*****
 37 40 0 0 0
SMALL
GASTEIGER

@<TRIPOS>ATOM
      1 N         140.2154  142.3803  159.2169 N.am    1  UNL1       -0.3018
      2 C         139.2447  141.9724  158.1485 C.2     1  UNL1        0.2426
      3 O         138.0765  141.0962  158.4915 O.2     1  UNL1       -0.2733
      4 H         140.9821  142.9554  158.9918 H       1  UNL1        0.1495
      5 N         139.7385  141.2500  162.6240 N.3     1  UNL1       -0.2711
      6 C         140.4561  140.7160  161.4200 C.3     1  UNL1        0.0933
      7 C         140.0178  141.9122  160.6282 C.3     1  UNL1        0.1035
      8 C         139.3002  142.4463  161.8322 C.3     1  UNL1        0.0933
      9 C         139.1459  139.8456  166.8580 C.3     1  UNL1        0.1288
     10 O         138.1877  139.0301  167.6746 O.3     1  UNL1       -0.3807
     11 C         140.3316  140.6953  166.5087 C.3     1  UNL1        0.0346
     12 C         140.5291  141.1634  165.0974 C.3     1  UNL1        0.0188
     13 C         139.5409  140.7819  164.0354 C.3     1  UNL1        0.0578
     14 C         138.3552  139.9322  164.3847 C.3     1  UNL1        0.0188
     15 C         138.1577  139.4641  165.7960 C.3     1  UNL1        0.0346
     16 H         138.4900  139.0028  168.5959 H       1  UNL1        0.2108
     17 C         142.8036  140.2433  170.6454 C.3     1  UNL1        0.0398
     18 C         141.4825  140.1267  169.9446 C.ar    1  UNL1        0.0279
     19 C         140.1370  140.0636  170.6044 C.ar    1  UNL1        0.1013
     20 N         139.0979  139.9506  169.5285 N.ar    1  UNL1       -0.2392
     21 C         139.8013  139.9439  168.2036 C.ar    1  UNL1        0.1120
     22 S         141.2751  140.0528  168.4608 S.2     1  UNL1       -0.0729
     23 C         139.4422  142.4405  156.7372 C.3     1  UNL1        0.1759
     24 N         139.0671  143.8409  156.3522 N.am    1  UNL1       -0.2931
     25 C         140.0482  144.9595  156.5428 C.2     1  UNL1        0.2462
     26 O         141.4043  144.6777  157.1184 O.2     1  UNL1       -0.2701
     27 H         138.1770  144.0258  155.9744 H       1  UNL1        0.1502
     28 C         139.6730  146.3598  156.1578 C.ar    1  UNL1        0.0533
     29 C         139.8546  146.8227  154.7426 C.ar    1  UNL1        0.0045
     30 C         139.4794  148.2231  154.3575 C.ar    1  UNL1        0.0001
     31 C         138.9228  149.1606  155.3877 C.ar    1  UNL1        0.0039
     32 C         138.7412  148.6977  156.8029 C.ar    1  UNL1        0.0716
     33 C         139.1163  147.2974  157.1879 C.ar    1  UNL1        0.0084
     34 C         138.1846  149.6351  157.8331 C.3     1  UNL1        0.4186
     35 F         137.6279  150.5726  158.8633 F       1  UNL1       -0.1659
     36 F         138.2150  148.5341  158.8514 F       1  UNL1       -0.1659
     37 F         138.1541  150.7361  156.8148 F       1  UNL1       -0.1659
@<TRIPOS>BOND
     1    17    18    1
     2    18    19   ar
     3    19    20   ar
     4    20    21   ar
     5    21     9    1
     6     9    10    1
     7     9    11    1
     8    11    12    1
     9    12    13    1
    10    13     5    1
    11     5     6    1
    12     6     7    1
    13     7     1    1
    14     1     2   am
    15     2     3    2
    16     2    23    1
    17    23    24    1
    18    24    25   am
    19    25    26    2
    20    25    28    1
    21    28    29   ar
    22    29    30   ar
    23    30    31   ar
    24    31    32   ar
    25    32    34    1
    26    34    35    1
    27    34    36    1
    28    34    37    1
    29    32    33   ar
    30     7     8    1
    31    13    14    1
    32    14    15    1
    33    21    22   ar
    34    22    18   ar
    35    15     9    1
    36     8     5    1
    37    33    28   ar
    38    10    16    1
    39     1     4    1
    40    24    27    1
@<TRIPOS>MOLECULE
*****
 37 40 0 0 0
SMALL
GASTEIGER

@<TRIPOS>ATOM
      1 N         138.0856  142.0279  158.3665 N.am    1  UNL1       -0.3018
      2 C         137.8095  140.9895  157.3198 C.2     1  UNL1        0.2426
      3 O         138.3641  139.6043  157.4728 O.2     1  UNL1       -0.2733
      4 H         137.7216  142.9371  158.2661 H       1  UNL1        0.1495
      5 N         140.0913  141.1903  161.2630 N.3     1  UNL1       -0.2711
      6 C         140.2535  142.1128  160.0914 C.3     1  UNL1        0.0933
      7 C         138.9164  141.6810  159.5663 C.3     1  UNL1        0.1035
      8 C         138.7542  140.7585  160.7379 C.3     1  UNL1        0.0933
      9 C         142.5834  140.1495  164.8624 C.3     1  UNL1        0.1288
     10 O         143.8154  139.3727  165.2213 O.3     1  UNL1       -0.3807
     11 C         141.3656  141.0114  165.0172 C.3     1  UNL1        0.0346
     12 C         140.5349  141.3583  163.8174 C.3     1  UNL1        0.0188
     13 C         140.9221  140.8433  162.4628 C.3     1  UNL1        0.0578
     14 C         142.1399  139.9814  162.3080 C.3     1  UNL1        0.0188
     15 C         142.9706  139.6345  163.5078 C.3     1  UNL1        0.0346
     16 H         143.9738  139.4406  166.1759 H       1  UNL1        0.2108
     17 C         142.8932  142.5699  169.5451 C.3     1  UNL1        0.0398
     18 C         142.7666  141.5071  168.4941 C.ar    1  UNL1        0.0279
     19 C         142.6074  140.0364  168.7421 C.ar    1  UNL1        0.1013
     20 N         142.5194  139.3488  167.4119 N.ar    1  UNL1       -0.2392
     21 C         142.6242  140.3946  166.3417 C.ar    1  UNL1        0.1120
     22 S         142.7770  141.7285  167.0105 S.2     1  UNL1       -0.0729
     23 C         136.9787  141.3365  156.1200 C.3     1  UNL1        0.1759
     24 N         135.4861  141.4217  156.2406 N.am    1  UNL1       -0.2931
     25 C         134.6322  140.2623  155.8202 C.2     1  UNL1        0.2462
     26 O         135.2710  139.0177  155.2792 O.2     1  UNL1       -0.2701
     27 H         135.0668  142.2386  156.5958 H       1  UNL1        0.1502
     28 C         133.1395  140.3476  155.9409 C.ar    1  UNL1        0.0533
     29 C         132.4017  141.4989  155.3243 C.ar    1  UNL1        0.0045
     30 C         130.9090  141.5841  155.4449 C.ar    1  UNL1        0.0001
     31 C         130.1540  140.5181  156.1821 C.ar    1  UNL1        0.0039
     32 C         130.8918  139.3667  156.7987 C.ar    1  UNL1        0.0716
     33 C         132.3845  139.2815  156.6781 C.ar    1  UNL1        0.0084
     34 C         130.1369  138.3007  157.5360 C.3     1  UNL1        0.4186
     35 F         129.3819  137.2346  158.2733 F       1  UNL1       -0.1659
     36 F         129.8528  139.2693  158.6456 F       1  UNL1       -0.1659
     37 F         130.4209  137.3322  156.4264 F       1  UNL1       -0.1659
@<TRIPOS>BOND
     1    17    18    1
     2    18    19   ar
     3    19    20   ar
     4    20    21   ar
     5    21     9    1
     6     9    10    1
     7     9    11    1
     8    11    12    1
     9    12    13    1
    10    13     5    1
    11     5     6    1
    12     6     7    1
    13     7     1    1
    14     1     2   am
    15     2     3    2
    16     2    23    1
    17    23    24    1
    18    24    25   am
    19    25    26    2
    20    25    28    1
    21    28    29   ar
    22    29    30   ar
    23    30    31   ar
    24    31    32   ar
    25    32    34    1
    26    34    35    1
    27    34    36    1
    28    34    37    1
    29    32    33   ar
    30     7     8    1
    31    13    14    1
    32    14    15    1
    33    21    22   ar
    34    22    18   ar
    35    15     9    1
    36     8     5    1
    37    33    28   ar
    38    10    16    1
    39     1     4    1
    40    24    27    1
@<TRIPOS>MOLECULE
*****
 37 40 0 0 0
SMALL
GASTEIGER

@<TRIPOS>ATOM
      1 N         142.7735  137.5904  159.3563 N.am    1  UNL1       -0.3018
      2 C         142.4702  138.4134  158.1393 C.2     1  UNL1        0.2426
      3 O         142.1997  139.8825  158.2758 O.2     1  UNL1       -0.2733
      4 H         142.9510  136.6262  159.2667 H       1  UNL1        0.1495
      5 N         142.8527  139.1504  162.6234 N.3     1  UNL1       -0.2711
      6 C         141.8826  139.1332  161.4794 C.3     1  UNL1        0.0933
      7 C         142.8063  138.2366  160.7095 C.3     1  UNL1        0.1035
      8 C         143.7764  138.2537  161.8535 C.3     1  UNL1        0.0933
      9 C         142.9512  141.0887  166.6833 C.3     1  UNL1        0.1288
     10 O         143.3763  142.3716  167.3341 O.3     1  UNL1       -0.3807
     11 C         142.3959  139.7041  166.5266 C.3     1  UNL1        0.0346
     12 C         142.3631  139.0581  165.1733 C.3     1  UNL1        0.0188
     13 C         142.8855  139.7965  163.9767 C.3     1  UNL1        0.0578
     14 C         143.4408  141.1811  164.1335 C.3     1  UNL1        0.0188
     15 C         143.4736  141.8272  165.4868 C.3     1  UNL1        0.0346
     16 H         143.1902  142.3288  168.2851 H       1  UNL1        0.2108
     17 C         140.8688  141.5123  171.5171 C.3     1  UNL1        0.0398
     18 C         141.6193  140.9905  170.3278 C.ar    1  UNL1        0.0279
     19 C         142.3803  139.6995  170.2624 C.ar    1  UNL1        0.1013
     20 N         142.9718  139.5792  168.8892 N.ar    1  UNL1       -0.2392
     21 C         142.5764  140.7958  168.1059 C.ar    1  UNL1        0.1120
     22 S         141.7405  141.6681  168.9950 S.2     1  UNL1       -0.0729
     23 C         142.4374  137.7672  156.7861 C.3     1  UNL1        0.1759
     24 N         142.4008  136.2722  156.6695 N.am    1  UNL1       -0.2931
     25 C         143.5184  135.5461  155.9811 C.2     1  UNL1        0.2462
     26 O         144.6724  136.3150  155.4092 O.2     1  UNL1       -0.2701
     27 H         141.6434  135.7676  157.0449 H       1  UNL1        0.1502
     28 C         143.4818  134.0511  155.8645 C.ar    1  UNL1        0.0533
     29 C         142.7764  133.4059  154.7086 C.ar    1  UNL1        0.0045
     30 C         142.7399  131.9109  154.5921 C.ar    1  UNL1        0.0001
     31 C         143.4088  131.0610  155.6315 C.ar    1  UNL1        0.0039
     32 C         144.1142  131.7062  156.7874 C.ar    1  UNL1        0.0716
     33 C         144.1508  133.2012  156.9039 C.ar    1  UNL1        0.0084
     34 C         144.7831  130.8564  157.8267 C.3     1  UNL1        0.4186
     35 F         145.4520  130.0064  158.8661 F       1  UNL1       -0.1659
     36 F         143.8337  129.7358  157.5215 F       1  UNL1       -0.1659
     37 F         145.7325  131.9768  158.1319 F       1  UNL1       -0.1659
@<TRIPOS>BOND
     1    17    18    1
     2    18    19   ar
     3    19    20   ar
     4    20    21   ar
     5    21     9    1
     6     9    10    1
     7     9    11    1
     8    11    12    1
     9    12    13    1
    10    13     5    1
    11     5     6    1
    12     6     7    1
    13     7     1    1
    14     1     2   am
    15     2     3    2
    16     2    23    1
    17    23    24    1
    18    24    25   am
    19    25    26    2
    20    25    28    1
    21    28    29   ar
    22    29    30   ar
    23    30    31   ar
    24    31    32   ar
    25    32    34    1
    26    34    35    1
    27    34    36    1
    28    34    37    1
    29    32    33   ar
    30     7     8    1
    31    13    14    1
    32    14    15    1
    33    21    22   ar
    34    22    18   ar
    35    15     9    1
    36     8     5    1
    37    33    28   ar
    38    10    16    1
    39     1     4    1
    40    24    27    1
@<TRIPOS>MOLECULE
*****
 37 40 0 0 0
SMALL
GASTEIGER

@<TRIPOS>ATOM
      1 N         142.4613  141.5484  161.1417 N.am    1  UNL1       -0.3018
      2 C         143.0659  142.1228  162.3885 C.2     1  UNL1        0.2426
      3 O         143.0357  143.6040  162.6231 O.2     1  UNL1       -0.2733
      4 H         142.4811  140.5762  160.9877 H       1  UNL1        0.1495
      5 N         140.9287  143.7377  158.6980 N.3     1  UNL1       -0.2711
      6 C         142.3013  143.1665  158.8972 C.3     1  UNL1        0.0933
      7 C         141.8265  142.4552  160.1295 C.3     1  UNL1        0.1035
      8 C         140.4538  143.0264  159.9303 C.3     1  UNL1        0.0933
      9 C         139.0242  146.4583  155.6614 C.3     1  UNL1        0.1288
     10 O         137.9375  146.4442  154.6275 O.3     1  UNL1       -0.3807
     11 C         140.1504  146.9599  156.5158 C.3     1  UNL1        0.0346
     12 C         140.7852  146.0530  157.5279 C.3     1  UNL1        0.0188
     13 C         140.2938  144.6446  157.6857 C.3     1  UNL1        0.0578
     14 C         139.1676  144.1430  156.8313 C.3     1  UNL1        0.0188
     15 C         138.5328  145.0499  155.8191 C.3     1  UNL1        0.0346
     16 H         137.8907  147.3116  154.1958 H       1  UNL1        0.2108
     17 C         138.6449  151.7100  155.2640 C.3     1  UNL1        0.0398
     18 C         138.9638  150.2757  154.9617 C.ar    1  UNL1        0.0279
     19 C         139.6633  149.7674  153.7361 C.ar    1  UNL1        0.1013
     20 N         139.7710  148.2756  153.8490 N.ar    1  UNL1       -0.2392
     21 C         139.1381  147.8618  155.1445 C.ar    1  UNL1        0.1120
     22 S         138.6392  149.0980  155.8322 S.2     1  UNL1       -0.0729
     23 C         143.7007  141.2159  163.4007 C.3     1  UNL1        0.1759
     24 N         143.1614  141.1589  164.7992 N.am    1  UNL1       -0.2931
     25 C         142.2282  140.0545  165.1988 C.2     1  UNL1        0.2462
     26 O         141.8344  139.0072  164.1997 O.2     1  UNL1       -0.2701
     27 H         143.4199  141.8463  165.4549 H       1  UNL1        0.1502
     28 C         141.6888  139.9975  166.5972 C.ar    1  UNL1        0.0533
     29 C         140.2210  140.1846  166.8432 C.ar    1  UNL1        0.0045
     30 C         139.6817  140.1275  168.2418 C.ar    1  UNL1        0.0001
     31 C         140.6102  139.8834  169.3943 C.ar    1  UNL1        0.0039
     32 C         142.0780  139.6963  169.1483 C.ar    1  UNL1        0.0716
     33 C         142.6173  139.7533  167.7498 C.ar    1  UNL1        0.0084
     34 C         143.0065  139.4521  170.3008 C.3     1  UNL1        0.4186
     35 F         143.9350  139.2079  171.4534 F       1  UNL1       -0.1659
     36 F         142.5512  138.0243  170.3650 F       1  UNL1       -0.1659
     37 F         143.4617  140.8799  170.2365 F       1  UNL1       -0.1659
@<TRIPOS>BOND
     1    17    18    1
     2    18    19   ar
     3    19    20   ar
     4    20    21   ar
     5    21     9    1
     6     9    10    1
     7     9    11    1
     8    11    12    1
     9    12    13    1
    10    13     5    1
    11     5     6    1
    12     6     7    1
    13     7     1    1
    14     1     2   am
    15     2     3    2
    16     2    23    1
    17    23    24    1
    18    24    25   am
    19    25    26    2
    20    25    28    1
    21    28    29   ar
    22    29    30   ar
    23    30    31   ar
    24    31    32   ar
    25    32    34    1
    26    34    35    1
    27    34    36    1
    28    34    37    1
    29    32    33   ar
    30     7     8    1
    31    13    14    1
    32    14    15    1
    33    21    22   ar
    34    22    18   ar
    35    15     9    1
    36     8     5    1
    37    33    28   ar
    38    10    16    1
    39     1     4    1
    40    24    27    1
@<TRIPOS>MOLECULE
*****
 37 40 0 0 0
SMALL
GASTEIGER

@<TRIPOS>ATOM
      1 N         138.8421  143.3773  159.7134 N.am    1  UNL1       -0.3018
      2 C         140.1213  143.6549  158.9807 C.2     1  UNL1        0.2426
      3 O         141.4364  143.2901  159.6031 O.2     1  UNL1       -0.2733
      4 H         137.9789  143.6167  159.3049 H       1  UNL1        0.1495
      5 N         138.9290  141.8265  162.9847 N.3     1  UNL1       -0.2711
      6 C         138.2750  143.0462  162.4061 C.3     1  UNL1        0.0933
      7 C         138.8781  142.7349  161.0684 C.3     1  UNL1        0.1035
      8 C         139.5320  141.5153  161.6470 C.3     1  UNL1        0.0933
      9 C         139.0371  139.8995  167.0497 C.3     1  UNL1        0.1288
     10 O         138.3518  138.8137  167.8252 O.3     1  UNL1       -0.3807
     11 C         139.9796  141.0206  166.7259 C.3     1  UNL1        0.0346
     12 C         139.9435  141.6629  165.3709 C.3     1  UNL1        0.0188
     13 C         138.9650  141.1841  164.3397 C.3     1  UNL1        0.0578
     14 C         138.0226  140.0631  164.6636 C.3     1  UNL1        0.0188
     15 C         138.0586  139.4207  166.0186 C.3     1  UNL1        0.0346
     16 H         138.7362  138.7593  168.7141 H       1  UNL1        0.2108
     17 C         142.9340  140.2367  170.5968 C.3     1  UNL1        0.0398
     18 C         141.5687  140.1561  169.9807 C.ar    1  UNL1        0.0279
     19 C         140.2651  140.1588  170.7226 C.ar    1  UNL1        0.1013
     20 N         139.1581  140.0630  169.7150 N.ar    1  UNL1       -0.2392
     21 C         139.7776  140.0011  168.3503 C.ar    1  UNL1        0.1120
     22 S         141.2675  140.0586  168.5145 S.2     1  UNL1       -0.0729
     23 C         140.0853  144.2972  157.6257 C.3     1  UNL1        0.1759
     24 N         138.9479  144.0117  156.6904 N.am    1  UNL1       -0.2931
     25 C         138.4876  142.5999  156.4782 C.2     1  UNL1        0.2462
     26 O         139.1648  141.4736  157.2013 O.2     1  UNL1       -0.2701
     27 H         138.5035  144.7510  156.2158 H       1  UNL1        0.1502
     28 C         137.3503  142.3145  155.5429 C.ar    1  UNL1        0.0533
     29 C         137.3533  142.8942  154.1594 C.ar    1  UNL1        0.0045
     30 C         136.2158  142.6087  153.2241 C.ar    1  UNL1        0.0001
     31 C         135.0754  141.7435  153.6723 C.ar    1  UNL1        0.0039
     32 C         135.0724  141.1638  155.0557 C.ar    1  UNL1        0.0716
     33 C         136.2098  141.4492  155.9910 C.ar    1  UNL1        0.0084
     34 C         133.9320  140.2986  155.5039 C.3     1  UNL1        0.4186
     35 F         132.7915  139.4334  155.9520 F       1  UNL1       -0.1659
     36 F         133.1233  141.5239  155.8116 F       1  UNL1       -0.1659
     37 F         134.7406  139.0733  155.1961 F       1  UNL1       -0.1659
@<TRIPOS>BOND
     1    17    18    1
     2    18    19   ar
     3    19    20   ar
     4    20    21   ar
     5    21     9    1
     6     9    10    1
     7     9    11    1
     8    11    12    1
     9    12    13    1
    10    13     5    1
    11     5     6    1
    12     6     7    1
    13     7     1    1
    14     1     2   am
    15     2     3    2
    16     2    23    1
    17    23    24    1
    18    24    25   am
    19    25    26    2
    20    25    28    1
    21    28    29   ar
    22    29    30   ar
    23    30    31   ar
    24    31    32   ar
    25    32    34    1
    26    34    35    1
    27    34    36    1
    28    34    37    1
    29    32    33   ar
    30     7     8    1
    31    13    14    1
    32    14    15    1
    33    21    22   ar
    34    22    18   ar
    35    15     9    1
    36     8     5    1
    37    33    28   ar
    38    10    16    1
    39     1     4    1
    40    24    27    1
