@<TRIPOS>MOLECULE
*****
 41 45 0 0 0
SMALL
GASTEIGER

@<TRIPOS>ATOM
      1 C         140.9754  138.8430  161.0106 C.ar    1  UNL1        0.0002
      2 C         139.4757  138.8325  161.0456 C.ar    1  UNL1        0.0000
      3 C         138.7454  139.5829  162.1195 C.ar    1  UNL1        0.0000
      4 C         139.5145  140.3437  163.1586 C.ar    1  UNL1        0.0000
      5 C         141.0141  140.3541  163.1236 C.ar    1  UNL1        0.0014
      6 C         141.7445  139.6038  162.0496 C.ar    1  UNL1        0.0000
      7 C         141.7832  141.1149  164.1626 C.ar    1  UNL1        0.0174
      8 C         141.8606  140.5962  165.5679 C.ar    1  UNL1       -0.0012
      9 C         142.6298  141.3570  166.6070 C.ar    1  UNL1       -0.0025
     10 C         143.3215  142.6365  166.2407 C.ar    1  UNL1       -0.0012
     11 C         143.2442  143.1553  164.8354 C.ar    1  UNL1        0.0174
     12 C         143.9359  144.4349  164.4691 C.ar    1  UNL1        0.0031
     13 C         143.8585  144.9536  163.0638 C.ar    1  UNL1        0.0207
     14 C         143.0894  144.1928  162.0248 C.ar    1  UNL1        0.0988
     15 N         142.3976  142.9133  162.3910 N.ar    1  UNL1       -0.2438
     16 C         142.4750  142.3945  163.7963 C.ar    1  UNL1        0.0812
     17 C         142.7071  140.8382  168.0123 C.3     1  UNL1        0.1294
     18 C         142.5957  139.4330  167.4996 C.3     1  UNL1        0.0281
     19 C         142.8186  142.2434  168.5250 C.3     1  UNL1        0.0281
     20 S         142.7845  140.3194  169.4176 S.O2    1  UNL1       -0.0079
     21 C         142.8618  139.8005  170.8228 C.3     1  UNL1        0.1763
     22 O         142.6463  141.7180  169.9416 O.2     1  UNL1       -0.1727
     23 O         142.9227  138.9207  168.8936 O.2     1  UNL1       -0.1727
     24 C         142.1158  138.7958  158.6767 C.2     1  UNL1        0.0561
     25 C         141.7057  138.0926  159.9366 C.2     1  UNL1        0.0047
     26 C         143.7414  134.9278  155.4711 C.3     1  UNL1        0.0773
     27 C         143.5934  136.2674  156.1292 C.ar    1  UNL1        0.1812
     28 N         144.3469  137.5140  155.7706 N.ar    1  UNL1       -0.0602
     29 O         143.8851  138.6129  156.6813 O.2     1  UNL1       -0.3328
     30 C         142.8462  138.0455  157.6027 C.ar    1  UNL1        0.2597
     31 N         142.6660  136.5959  157.2614 N.ar    1  UNL1       -0.1911
     32 C         141.7956  140.2494  158.4908 C.ar    1  UNL1        0.0047
     33 C         142.8124  141.2930  158.8473 C.ar    1  UNL1        0.0015
     34 C         142.4920  142.7466  158.6613 C.ar    1  UNL1        0.0183
     35 C         141.1550  143.1565  158.1189 C.ar    1  UNL1        0.1057
     36 C         140.1382  142.1129  157.7625 C.ar    1  UNL1        0.0183
     37 C         140.4585  140.6594  157.9484 C.ar    1  UNL1        0.0015
     38 S         140.8347  144.6101  157.9330 S.O2    1  UNL1        0.0104
     39 C         140.5143  146.0636  157.7471 C.3     1  UNL1        0.1816
     40 O         142.0966  144.9805  158.6544 O.2     1  UNL1       -0.1686
     41 O         139.5728  144.2397  157.2117 O.2     1  UNL1       -0.1686
@<TRIPOS>BOND
     1    26    27    1
     2    27    28   ar
     3    28    29   ar
     4    29    30   ar
     5    30    24    1
     6    24    25    2
     7    25     1    1
     8     1     2   ar
     9     2     3   ar
    10     3     4   ar
    11     4     5   ar
    12     5     7    1
    13     7     8   ar
    14     8     9   ar
    15     9    17    1
    16    17    18    1
    17    17    19    1
    18    17    20    1
    19    20    21    1
    20    20    22    2
    21    20    23    2
    22     9    10   ar
    23    10    11   ar
    24    11    12   ar
    25    12    13   ar
    26    13    14   ar
    27    14    15   ar
    28    15    16   ar
    29     5     6   ar
    30    24    32    1
    31    32    33   ar
    32    33    34   ar
    33    34    35   ar
    34    35    38    1
    35    38    39    1
    36    38    40    2
    37    38    41    2
    38    35    36   ar
    39    36    37   ar
    40    30    31   ar
    41    31    27   ar
    42     6     1   ar
    43    37    32   ar
    44    16     7   ar
    45    16    11   ar
@<TRIPOS>MOLECULE
*****
 41 45 0 0 0
SMALL
GASTEIGER

@<TRIPOS>ATOM
      1 C         142.7020  139.5356  160.8965 C.ar    1  UNL1        0.0002
      2 C         142.0071  138.2070  160.8498 C.ar    1  UNL1        0.0000
      3 C         140.9240  137.8919  161.8384 C.ar    1  UNL1        0.0000
      4 C         140.5356  138.9054  162.8738 C.ar    1  UNL1        0.0000
      5 C         141.2304  140.2339  162.9206 C.ar    1  UNL1        0.0014
      6 C         142.3136  140.5490  161.9319 C.ar    1  UNL1        0.0000
      7 C         140.8420  141.2474  163.9560 C.ar    1  UNL1        0.0174
      8 C         141.5343  141.2634  165.2865 C.ar    1  UNL1       -0.0012
      9 C         141.1460  142.2769  166.3219 C.ar    1  UNL1       -0.0025
     10 C         140.0653  143.2743  166.0268 C.ar    1  UNL1       -0.0012
     11 C         139.3729  143.2583  164.6962 C.ar    1  UNL1        0.0174
     12 C         138.2922  144.2558  164.4010 C.ar    1  UNL1        0.0031
     13 C         137.5999  144.2398  163.0705 C.ar    1  UNL1        0.0207
     14 C         137.9882  143.2263  162.0351 C.ar    1  UNL1        0.0988
     15 N         139.0689  142.2288  162.3302 N.ar    1  UNL1       -0.2438
     16 C         139.7613  142.2449  163.6608 C.ar    1  UNL1        0.0812
     17 C         141.8384  142.2928  167.6525 C.3     1  UNL1        0.1294
     18 C         140.5133  142.4388  168.3402 C.3     1  UNL1        0.0281
     19 C         143.1634  142.1468  166.9648 C.3     1  UNL1        0.0281
     20 S         142.5307  142.3088  168.9831 S.O2    1  UNL1       -0.0079
     21 C         143.2230  142.3248  170.3136 C.3     1  UNL1        0.1763
     22 O         143.8068  142.7260  168.3141 O.2     1  UNL1       -0.1727
     23 O         141.2546  141.8917  169.6520 O.2     1  UNL1       -0.1727
     24 C         143.4284  140.3191  158.5283 C.2     1  UNL1        0.0561
     25 C         143.7852  139.8506  159.9079 C.2     1  UNL1        0.0047
     26 C         147.2904  142.8196  155.9375 C.3     1  UNL1        0.0773
     27 C         146.2868  141.7836  156.3488 C.ar    1  UNL1        0.1812
     28 N         146.0701  140.4545  155.6878 N.ar    1  UNL1       -0.0602
     29 O         144.9729  139.7442  156.4238 O.2     1  UNL1       -0.3328
     30 C         144.5115  140.6342  157.5397 C.ar    1  UNL1        0.2597
     31 N         145.3236  141.8946  157.4933 N.ar    1  UNL1       -0.1911
     32 C         141.9884  140.4725  158.1373 C.ar    1  UNL1        0.0047
     33 C         141.2811  139.3567  157.4270 C.ar    1  UNL1        0.0015
     34 C         139.8411  139.5101  157.0360 C.ar    1  UNL1        0.0183
     35 C         139.1084  140.7794  157.3554 C.ar    1  UNL1        0.1057
     36 C         139.8156  141.8952  158.0658 C.ar    1  UNL1        0.0183
     37 C         141.2556  141.7418  158.4568 C.ar    1  UNL1        0.0015
     38 S         137.6683  140.9329  156.9645 S.O2    1  UNL1        0.0104
     39 C         136.2283  141.0863  156.5735 C.3     1  UNL1        0.1816
     40 O         137.6127  142.2473  157.6850 O.2     1  UNL1       -0.1686
     41 O         137.7239  139.6185  156.2440 O.2     1  UNL1       -0.1686
@<TRIPOS>BOND
     1    26    27    1
     2    27    28   ar
     3    28    29   ar
     4    29    30   ar
     5    30    24    1
     6    24    25    2
     7    25     1    1
     8     1     2   ar
     9     2     3   ar
    10     3     4   ar
    11     4     5   ar
    12     5     7    1
    13     7     8   ar
    14     8     9   ar
    15     9    17    1
    16    17    18    1
    17    17    19    1
    18    17    20    1
    19    20    21    1
    20    20    22    2
    21    20    23    2
    22     9    10   ar
    23    10    11   ar
    24    11    12   ar
    25    12    13   ar
    26    13    14   ar
    27    14    15   ar
    28    15    16   ar
    29     5     6   ar
    30    24    32    1
    31    32    33   ar
    32    33    34   ar
    33    34    35   ar
    34    35    38    1
    35    38    39    1
    36    38    40    2
    37    38    41    2
    38    35    36   ar
    39    36    37   ar
    40    30    31   ar
    41    31    27   ar
    42     6     1   ar
    43    37    32   ar
    44    16     7   ar
    45    16    11   ar
@<TRIPOS>MOLECULE
*****
 41 45 0 0 0
SMALL
GASTEIGER

@<TRIPOS>ATOM
      1 C         143.9390  141.0064  162.1334 C.ar    1  UNL1        0.0002
      2 C         145.3525  141.3377  162.5107 C.ar    1  UNL1        0.0000
      3 C         145.6359  142.0673  163.7903 C.ar    1  UNL1        0.0000
      4 C         144.5058  142.4656  164.6927 C.ar    1  UNL1        0.0000
      5 C         143.0923  142.1343  164.3155 C.ar    1  UNL1        0.0014
      6 C         142.8089  141.4047  163.0358 C.ar    1  UNL1        0.0000
      7 C         141.9623  142.5326  165.2178 C.ar    1  UNL1        0.0174
      8 C         141.9612  142.1002  166.6541 C.ar    1  UNL1       -0.0012
      9 C         140.8311  142.4985  167.5565 C.ar    1  UNL1       -0.0025
     10 C         139.7021  143.3292  167.0226 C.ar    1  UNL1       -0.0012
     11 C         139.7031  143.7617  165.5862 C.ar    1  UNL1        0.0174
     12 C         138.5741  144.5924  165.0523 C.ar    1  UNL1        0.0031
     13 C         138.5751  145.0249  163.6160 C.ar    1  UNL1        0.0207
     14 C         139.7052  144.6266  162.7136 C.ar    1  UNL1        0.0988
     15 N         140.8342  143.7958  163.2476 N.ar    1  UNL1       -0.2438
     16 C         140.8332  143.3634  164.6838 C.ar    1  UNL1        0.0812
     17 C         140.8301  142.0660  168.9928 C.3     1  UNL1        0.1294
     18 C         141.0913  140.6516  168.5671 C.3     1  UNL1        0.0281
     19 C         140.5690  143.4804  169.4186 C.3     1  UNL1        0.0281
     20 S         140.8291  141.6335  170.4291 S.O2    1  UNL1       -0.0079
     21 C         140.8281  141.2010  171.8653 C.3     1  UNL1        0.1763
     22 O         139.3385  141.4736  170.3799 O.2     1  UNL1       -0.1727
     23 O         142.3197  141.7933  170.4783 O.2     1  UNL1       -0.1727
     24 C         142.4550  139.3837  160.7498 C.2     1  UNL1        0.0561
     25 C         143.6556  140.2768  160.8539 C.2     1  UNL1        0.0047
     26 C         143.0707  136.4856  156.3792 C.3     1  UNL1        0.0773
     27 C         142.4547  137.3219  157.4612 C.ar    1  UNL1        0.1812
     28 N         141.0165  137.7407  157.5409 N.ar    1  UNL1       -0.0602
     29 O         140.8415  138.5640  158.7826 O.2     1  UNL1       -0.3328
     30 C         142.1716  138.6541  159.4702 C.ar    1  UNL1        0.2597
     31 N         143.1686  137.8864  158.6535 N.ar    1  UNL1       -0.1911
     32 C         141.5377  139.2202  161.9253 C.ar    1  UNL1        0.0047
     33 C         141.8235  138.1720  162.9595 C.ar    1  UNL1        0.0015
     34 C         140.9062  138.0085  164.1351 C.ar    1  UNL1        0.0183
     35 C         139.7031  138.8931  164.2764 C.ar    1  UNL1        0.1057
     36 C         139.4173  139.9413  163.2421 C.ar    1  UNL1        0.0183
     37 C         140.3346  140.1048  162.0666 C.ar    1  UNL1        0.0015
     38 S         138.7858  138.7296  165.4519 S.O2    1  UNL1        0.0104
     39 C         137.8685  138.5661  166.6274 C.3     1  UNL1        0.1816
     40 O         138.7965  137.2428  165.2535 O.2     1  UNL1       -0.1686
     41 O         138.7751  140.2163  165.6503 O.2     1  UNL1       -0.1686
@<TRIPOS>BOND
     1    26    27    1
     2    27    28   ar
     3    28    29   ar
     4    29    30   ar
     5    30    24    1
     6    24    25    2
     7    25     1    1
     8     1     2   ar
     9     2     3   ar
    10     3     4   ar
    11     4     5   ar
    12     5     7    1
    13     7     8   ar
    14     8     9   ar
    15     9    17    1
    16    17    18    1
    17    17    19    1
    18    17    20    1
    19    20    21    1
    20    20    22    2
    21    20    23    2
    22     9    10   ar
    23    10    11   ar
    24    11    12   ar
    25    12    13   ar
    26    13    14   ar
    27    14    15   ar
    28    15    16   ar
    29     5     6   ar
    30    24    32    1
    31    32    33   ar
    32    33    34   ar
    33    34    35   ar
    34    35    38    1
    35    38    39    1
    36    38    40    2
    37    38    41    2
    38    35    36   ar
    39    36    37   ar
    40    30    31   ar
    41    31    27   ar
    42     6     1   ar
    43    37    32   ar
    44    16     7   ar
    45    16    11   ar
@<TRIPOS>MOLECULE
*****
 41 45 0 0 0
SMALL
GASTEIGER

@<TRIPOS>ATOM
      1 C         144.0397  141.8640  161.8543 C.ar    1  UNL1        0.0002
      2 C         145.4217  141.7987  162.4338 C.ar    1  UNL1        0.0000
      3 C         145.6226  141.3252  163.8428 C.ar    1  UNL1        0.0000
      4 C         144.4415  140.9169  164.6724 C.ar    1  UNL1        0.0000
      5 C         143.0595  140.9821  164.0930 C.ar    1  UNL1        0.0014
      6 C         142.8585  141.4556  162.6839 C.ar    1  UNL1        0.0000
      7 C         141.8784  140.5738  164.9226 C.ar    1  UNL1        0.0174
      8 C         141.6297  141.2307  166.2480 C.ar    1  UNL1       -0.0012
      9 C         140.4486  140.8223  167.0776 C.ar    1  UNL1       -0.0025
     10 C         139.5162  139.7571  166.5818 C.ar    1  UNL1       -0.0012
     11 C         139.7648  139.1002  165.2564 C.ar    1  UNL1        0.0174
     12 C         138.8323  138.0350  164.7607 C.ar    1  UNL1        0.0031
     13 C         139.0810  137.3781  163.4353 C.ar    1  UNL1        0.0207
     14 C         140.2621  137.7864  162.6057 C.ar    1  UNL1        0.0988
     15 N         141.1946  138.8516  163.1014 N.ar    1  UNL1       -0.2438
     16 C         140.9459  139.5085  164.4268 C.ar    1  UNL1        0.0812
     17 C         140.2000  141.4793  168.4030 C.3     1  UNL1        0.1294
     18 C         139.4706  140.2556  168.8726 C.3     1  UNL1        0.0281
     19 C         140.9294  142.7029  167.9334 C.3     1  UNL1        0.0281
     20 S         139.9514  142.1362  169.7284 S.O2    1  UNL1       -0.0079
     21 C         139.7027  142.7930  171.0538 C.3     1  UNL1        0.1763
     22 O         140.6338  143.3795  169.2402 O.2     1  UNL1       -0.1727
     23 O         139.2689  140.8928  170.2166 O.2     1  UNL1       -0.1727
     24 C         142.6150  143.1273  160.0868 C.2     1  UNL1        0.0561
     25 C         143.8388  142.3375  160.4453 C.2     1  UNL1        0.0047
     26 C         141.4507  143.2180  154.9374 C.3     1  UNL1        0.0773
     27 C         141.8789  143.6425  156.3108 C.ar    1  UNL1        0.1812
     28 N         142.3309  145.0166  156.7081 N.ar    1  UNL1       -0.0602
     29 O         142.6616  144.9908  158.1710 O.2     1  UNL1       -0.3328
     30 C         142.4141  143.6009  158.6778 C.ar    1  UNL1        0.2597
     31 N         141.9303  142.7676  157.5281 N.ar    1  UNL1       -0.1911
     32 C         141.5921  143.4437  161.1373 C.ar    1  UNL1        0.0047
     33 C         141.8217  144.5795  162.0898 C.ar    1  UNL1        0.0015
     34 C         140.7988  144.8957  163.1404 C.ar    1  UNL1        0.0183
     35 C         139.5463  144.0763  163.2384 C.ar    1  UNL1        0.1057
     36 C         139.3167  142.9405  162.2859 C.ar    1  UNL1        0.0183
     37 C         140.3395  142.6241  161.2354 C.ar    1  UNL1        0.0015
     38 S         138.5233  144.3926  164.2889 S.O2    1  UNL1        0.0104
     39 C         137.5004  144.7088  165.3394 C.3     1  UNL1        0.1816
     40 O         139.6156  144.5532  165.3043 O.2     1  UNL1       -0.1686
     41 O         137.4310  144.2319  163.2736 O.2     1  UNL1       -0.1686
@<TRIPOS>BOND
     1    26    27    1
     2    27    28   ar
     3    28    29   ar
     4    29    30   ar
     5    30    24    1
     6    24    25    2
     7    25     1    1
     8     1     2   ar
     9     2     3   ar
    10     3     4   ar
    11     4     5   ar
    12     5     7    1
    13     7     8   ar
    14     8     9   ar
    15     9    17    1
    16    17    18    1
    17    17    19    1
    18    17    20    1
    19    20    21    1
    20    20    22    2
    21    20    23    2
    22     9    10   ar
    23    10    11   ar
    24    11    12   ar
    25    12    13   ar
    26    13    14   ar
    27    14    15   ar
    28    15    16   ar
    29     5     6   ar
    30    24    32    1
    31    32    33   ar
    32    33    34   ar
    33    34    35   ar
    34    35    38    1
    35    38    39    1
    36    38    40    2
    37    38    41    2
    38    35    36   ar
    39    36    37   ar
    40    30    31   ar
    41    31    27   ar
    42     6     1   ar
    43    37    32   ar
    44    16     7   ar
    45    16    11   ar
@<TRIPOS>MOLECULE
*****
 41 45 0 0 0
SMALL
GASTEIGER

@<TRIPOS>ATOM
      1 C         142.0279  143.6123  161.4103 C.ar    1  UNL1        0.0002
      2 C         143.5228  143.4873  161.4070 C.ar    1  UNL1        0.0000
      3 C         144.2049  142.6171  162.4205 C.ar    1  UNL1        0.0000
      4 C         143.3923  141.8718  163.4375 C.ar    1  UNL1        0.0000
      5 C         141.8975  141.9968  163.4409 C.ar    1  UNL1        0.0014
      6 C         141.2153  142.8670  162.4273 C.ar    1  UNL1        0.0000
      7 C         141.0849  141.2515  164.4578 C.ar    1  UNL1        0.0174
      8 C         141.0034  141.7555  165.8682 C.ar    1  UNL1       -0.0012
      9 C         140.1908  141.0102  166.8852 C.ar    1  UNL1       -0.0025
     10 C         139.4597  139.7609  166.4917 C.ar    1  UNL1       -0.0012
     11 C         139.5412  139.2569  165.0813 C.ar    1  UNL1        0.0174
     12 C         138.8102  138.0076  164.6878 C.ar    1  UNL1        0.0031
     13 C         138.8917  137.5036  163.2774 C.ar    1  UNL1        0.0207
     14 C         139.7044  138.2489  162.2604 C.ar    1  UNL1        0.0988
     15 N         140.4354  139.4982  162.6539 N.ar    1  UNL1       -0.2438
     16 C         140.3539  140.0022  164.0643 C.ar    1  UNL1        0.0812
     17 C         140.1092  141.5142  168.2957 C.3     1  UNL1        0.1294
     18 C         139.5277  140.2019  168.7310 C.3     1  UNL1        0.0281
     19 C         140.6907  142.8266  167.8604 C.3     1  UNL1        0.0281
     20 S         140.0277  142.0182  169.7061 S.O2    1  UNL1       -0.0079
     21 C         139.9461  142.5222  171.1165 C.3     1  UNL1        0.1763
     22 O         140.9605  143.1404  169.3590 O.2     1  UNL1       -0.1727
     23 O         139.0948  140.8960  170.0531 O.2     1  UNL1       -0.1727
     24 C         141.0039  143.9318  159.0440 C.2     1  UNL1        0.0561
     25 C         141.3458  144.4825  160.3967 C.2     1  UNL1        0.0047
     26 C         138.0563  145.5230  154.9624 C.3     1  UNL1        0.0773
     27 C         138.9668  145.5334  156.1543 C.ar    1  UNL1        0.1812
     28 N         139.5771  146.7488  156.7870 N.ar    1  UNL1       -0.0602
     29 O         140.4145  146.2968  157.9466 O.2     1  UNL1       -0.3328
     30 C         140.3218  144.8020  158.0305 C.ar    1  UNL1        0.2597
     31 N         139.4270  144.3302  156.9227 N.ar    1  UNL1       -0.1911
     32 C         141.3441  142.5108  158.7049 C.ar    1  UNL1        0.0047
     33 C         142.6333  142.1944  158.0064 C.ar    1  UNL1        0.0015
     34 C         142.9735  140.7734  157.6672 C.ar    1  UNL1        0.0183
     35 C         142.0245  139.6687  158.0267 C.ar    1  UNL1        0.1057
     36 C         140.7354  139.9851  158.7253 C.ar    1  UNL1        0.0183
     37 C         140.3951  141.4061  159.0644 C.ar    1  UNL1        0.0015
     38 S         142.3647  138.2477  157.6876 S.O2    1  UNL1        0.0104
     39 C         142.7049  136.8267  157.3485 C.3     1  UNL1        0.1816
     40 O         140.9559  137.8364  157.9974 O.2     1  UNL1       -0.1686
     41 O         143.7735  138.6589  157.3778 O.2     1  UNL1       -0.1686
@<TRIPOS>BOND
     1    26    27    1
     2    27    28   ar
     3    28    29   ar
     4    29    30   ar
     5    30    24    1
     6    24    25    2
     7    25     1    1
     8     1     2   ar
     9     2     3   ar
    10     3     4   ar
    11     4     5   ar
    12     5     7    1
    13     7     8   ar
    14     8     9   ar
    15     9    17    1
    16    17    18    1
    17    17    19    1
    18    17    20    1
    19    20    21    1
    20    20    22    2
    21    20    23    2
    22     9    10   ar
    23    10    11   ar
    24    11    12   ar
    25    12    13   ar
    26    13    14   ar
    27    14    15   ar
    28    15    16   ar
    29     5     6   ar
    30    24    32    1
    31    32    33   ar
    32    33    34   ar
    33    34    35   ar
    34    35    38    1
    35    38    39    1
    36    38    40    2
    37    38    41    2
    38    35    36   ar
    39    36    37   ar
    40    30    31   ar
    41    31    27   ar
    42     6     1   ar
    43    37    32   ar
    44    16     7   ar
    45    16    11   ar
@<TRIPOS>MOLECULE
*****
 41 45 0 0 0
SMALL
GASTEIGER

@<TRIPOS>ATOM
      1 C         143.6477  141.1663  161.3178 C.ar    1  UNL1        0.0002
      2 C         144.7802  142.1343  161.1427 C.ar    1  UNL1        0.0000
      3 C         144.9030  143.3180  162.0558 C.ar    1  UNL1        0.0000
      4 C         143.8934  143.5338  163.1439 C.ar    1  UNL1        0.0000
      5 C         142.7609  142.5659  163.3190 C.ar    1  UNL1        0.0014
      6 C         142.6381  141.3821  162.4059 C.ar    1  UNL1        0.0000
      7 C         141.7513  142.7817  164.4072 C.ar    1  UNL1        0.0174
      8 C         142.1113  142.4877  165.8333 C.ar    1  UNL1       -0.0012
      9 C         141.1016  142.7035  166.9215 C.ar    1  UNL1       -0.0025
     10 C         139.7320  143.2132  166.5835 C.ar    1  UNL1       -0.0012
     11 C         139.3720  143.5072  165.1572 C.ar    1  UNL1        0.0174
     12 C         138.0023  144.0169  164.8192 C.ar    1  UNL1        0.0031
     13 C         137.6424  144.3108  163.3931 C.ar    1  UNL1        0.0207
     14 C         138.6520  144.0950  162.3049 C.ar    1  UNL1        0.0988
     15 N         140.0216  143.5853  162.6429 N.ar    1  UNL1       -0.2438
     16 C         140.3816  143.2914  164.0691 C.ar    1  UNL1        0.0812
     17 C         141.4617  142.4096  168.3477 C.3     1  UNL1        0.1294
     18 C         140.3477  143.3001  168.8124 C.3     1  UNL1        0.0281
     19 C         142.5757  141.5191  167.8830 C.3     1  UNL1        0.0281
     20 S         141.8217  142.1157  169.7739 S.O2    1  UNL1       -0.0079
     21 C         142.1816  141.8218  171.2000 C.3     1  UNL1        0.1763
     22 O         141.0340  143.3120  170.2192 O.2     1  UNL1       -0.1727
     23 O         142.6093  140.9194  169.3285 O.2     1  UNL1       -0.1727
     24 C         142.7899  140.1121  159.1036 C.2     1  UNL1        0.0561
     25 C         143.5249  139.9826  160.4047 C.2     1  UNL1        0.0047
     26 C         143.8455  136.4843  155.4151 C.3     1  UNL1        0.0773
     27 C         143.1523  137.2609  156.4950 C.ar    1  UNL1        0.1812
     28 N         141.8039  136.9529  157.0756 N.ar    1  UNL1       -0.0602
     29 O         141.5040  137.9835  158.1234 O.2     1  UNL1       -0.3328
     30 C         142.6670  138.9285  158.1905 C.ar    1  UNL1        0.2597
     31 N         143.6858  138.4818  157.1841 N.ar    1  UNL1       -0.1911
     32 C         142.1776  141.4253  158.7155 C.ar    1  UNL1        0.0047
     33 C         140.7810  141.7591  159.1493 C.ar    1  UNL1        0.0015
     34 C         140.1688  143.0723  158.7612 C.ar    1  UNL1        0.0183
     35 C         140.9531  144.0518  157.9394 C.ar    1  UNL1        0.1057
     36 C         142.3497  143.7181  157.5056 C.ar    1  UNL1        0.0183
     37 C         142.9619  142.4049  157.8936 C.ar    1  UNL1        0.0015
     38 S         140.3408  145.3651  157.5513 S.O2    1  UNL1        0.0104
     39 C         139.7286  146.6783  157.1632 C.3     1  UNL1        0.1816
     40 O         139.8671  145.5609  158.9610 O.2     1  UNL1       -0.1686
     41 O         140.8145  145.1693  156.1416 O.2     1  UNL1       -0.1686
@<TRIPOS>BOND
     1    26    27    1
     2    27    28   ar
     3    28    29   ar
     4    29    30   ar
     5    30    24    1
     6    24    25    2
     7    25     1    1
     8     1     2   ar
     9     2     3   ar
    10     3     4   ar
    11     4     5   ar
    12     5     7    1
    13     7     8   ar
    14     8     9   ar
    15     9    17    1
    16    17    18    1
    17    17    19    1
    18    17    20    1
    19    20    21    1
    20    20    22    2
    21    20    23    2
    22     9    10   ar
    23    10    11   ar
    24    11    12   ar
    25    12    13   ar
    26    13    14   ar
    27    14    15   ar
    28    15    16   ar
    29     5     6   ar
    30    24    32    1
    31    32    33   ar
    32    33    34   ar
    33    34    35   ar
    34    35    38    1
    35    38    39    1
    36    38    40    2
    37    38    41    2
    38    35    36   ar
    39    36    37   ar
    40    30    31   ar
    41    31    27   ar
    42     6     1   ar
    43    37    32   ar
    44    16     7   ar
    45    16    11   ar
@<TRIPOS>MOLECULE
*****
 41 45 0 0 0
SMALL
GASTEIGER

@<TRIPOS>ATOM
      1 C         141.5391  138.8139  160.5518 C.ar    1  UNL1        0.0002
      2 C         142.5806  137.7583  160.3253 C.ar    1  UNL1        0.0000
      3 C         143.7450  137.6401  161.2634 C.ar    1  UNL1        0.0000
      4 C         143.8680  138.5774  162.4280 C.ar    1  UNL1        0.0000
      5 C         142.8266  139.6329  162.6545 C.ar    1  UNL1        0.0014
      6 C         141.6621  139.7511  161.7164 C.ar    1  UNL1        0.0000
      7 C         142.9497  140.5701  163.8192 C.ar    1  UNL1        0.0174
      8 C         142.7378  140.0637  165.2151 C.ar    1  UNL1       -0.0012
      9 C         142.8608  141.0010  166.3797 C.ar    1  UNL1       -0.0025
     10 C         143.1958  142.4447  166.1484 C.ar    1  UNL1       -0.0012
     11 C         143.4077  142.9512  164.7524 C.ar    1  UNL1        0.0174
     12 C         143.7426  144.3949  164.5212 C.ar    1  UNL1        0.0031
     13 C         143.9545  144.9013  163.1253 C.ar    1  UNL1        0.0207
     14 C         143.8315  143.9640  161.9606 C.ar    1  UNL1        0.0988
     15 N         143.4966  142.5203  162.1919 N.ar    1  UNL1       -0.2438
     16 C         143.2847  142.0139  163.5878 C.ar    1  UNL1        0.0812
     17 C         142.6489  140.4946  167.7757 C.3     1  UNL1        0.1294
     18 C         142.4048  141.8973  168.2475 C.3     1  UNL1        0.0281
     19 C         142.8931  139.0918  167.3038 C.3     1  UNL1        0.0281
     20 S         142.4370  139.9882  169.1716 S.O2    1  UNL1       -0.0079
     21 C         142.2251  139.4818  170.5675 C.3     1  UNL1        0.1763
     22 O         143.1176  138.7018  168.8083 O.2     1  UNL1       -0.1727
     23 O         141.7564  141.2745  169.5349 O.2     1  UNL1       -0.1727
     24 C         140.5467  139.6090  158.2862 C.2     1  UNL1        0.0561
     25 C         140.3747  138.9321  159.6137 C.2     1  UNL1        0.0047
     26 C         136.4314  141.5540  155.6100 C.3     1  UNL1        0.0773
     27 C         137.4906  140.6213  156.1180 C.ar    1  UNL1        0.1812
     28 N         137.6900  139.1972  155.6909 N.ar    1  UNL1       -0.0602
     29 O         138.8591  138.6446  156.4513 O.2     1  UNL1       -0.3328
     30 C         139.3823  139.7272  157.3481 C.ar    1  UNL1        0.2597
     31 N         138.5365  140.9489  157.1421 N.ar    1  UNL1       -0.1911
     32 C         141.8832  140.1677  157.8968 C.ar    1  UNL1        0.0047
     33 C         142.3538  141.4651  158.4845 C.ar    1  UNL1        0.0015
     34 C         143.6904  142.0238  158.0951 C.ar    1  UNL1        0.0183
     35 C         144.5562  141.2851  157.1181 C.ar    1  UNL1        0.1057
     36 C         144.0855  139.9878  156.5304 C.ar    1  UNL1        0.0183
     37 C         142.7491  139.4291  156.9197 C.ar    1  UNL1        0.0015
     38 S         145.8927  141.8438  156.7286 S.O2    1  UNL1        0.0104
     39 C         147.2292  142.4025  156.3393 C.3     1  UNL1        0.1816
     40 O         145.9319  140.9246  155.5440 O.2     1  UNL1       -0.1686
     41 O         145.8536  142.7631  157.9133 O.2     1  UNL1       -0.1686
@<TRIPOS>BOND
     1    26    27    1
     2    27    28   ar
     3    28    29   ar
     4    29    30   ar
     5    30    24    1
     6    24    25    2
     7    25     1    1
     8     1     2   ar
     9     2     3   ar
    10     3     4   ar
    11     4     5   ar
    12     5     7    1
    13     7     8   ar
    14     8     9   ar
    15     9    17    1
    16    17    18    1
    17    17    19    1
    18    17    20    1
    19    20    21    1
    20    20    22    2
    21    20    23    2
    22     9    10   ar
    23    10    11   ar
    24    11    12   ar
    25    12    13   ar
    26    13    14   ar
    27    14    15   ar
    28    15    16   ar
    29     5     6   ar
    30    24    32    1
    31    32    33   ar
    32    33    34   ar
    33    34    35   ar
    34    35    38    1
    35    38    39    1
    36    38    40    2
    37    38    41    2
    38    35    36   ar
    39    36    37   ar
    40    30    31   ar
    41    31    27   ar
    42     6     1   ar
    43    37    32   ar
    44    16     7   ar
    45    16    11   ar
@<TRIPOS>MOLECULE
*****
 41 45 0 0 0
SMALL
GASTEIGER

@<TRIPOS>ATOM
      1 C         142.1565  143.4437  161.2240 C.ar    1  UNL1        0.0002
      2 C         141.3302  144.6863  161.0717 C.ar    1  UNL1        0.0000
      3 C         140.1534  144.9195  161.9722 C.ar    1  UNL1        0.0000
      4 C         139.8029  143.9101  163.0249 C.ar    1  UNL1        0.0000
      5 C         140.6292  142.6675  163.1772 C.ar    1  UNL1        0.0014
      6 C         141.8060  142.4343  162.2768 C.ar    1  UNL1        0.0000
      7 C         140.2787  141.6581  164.2300 C.ar    1  UNL1        0.0174
      8 C         140.4337  142.0035  165.6814 C.ar    1  UNL1       -0.0012
      9 C         140.0832  140.9941  166.7341 C.ar    1  UNL1       -0.0025
     10 C         139.5777  139.6393  166.3354 C.ar    1  UNL1       -0.0012
     11 C         139.4226  139.2939  164.8839 C.ar    1  UNL1        0.0174
     12 C         138.9170  137.9391  164.4853 C.ar    1  UNL1        0.0031
     13 C         138.7619  137.5938  163.0339 C.ar    1  UNL1        0.0207
     14 C         139.1124  138.6032  161.9811 C.ar    1  UNL1        0.0988
     15 N         139.6180  139.9579  162.3798 N.ar    1  UNL1       -0.2438
     16 C         139.7731  140.3033  163.8312 C.ar    1  UNL1        0.0812
     17 C         140.2383  141.3395  168.1856 C.3     1  UNL1        0.1294
     18 C         139.4438  140.1235  168.5598 C.3     1  UNL1        0.0281
     19 C         141.0329  142.5554  167.8114 C.3     1  UNL1        0.0281
     20 S         140.3934  141.6848  169.6370 S.O2    1  UNL1       -0.0079
     21 C         140.5484  142.0302  171.0884 C.3     1  UNL1        0.1763
     22 O         140.3326  143.1443  169.2962 O.2     1  UNL1       -0.1727
     23 O         140.4541  140.2254  169.9778 O.2     1  UNL1       -0.1727
     24 C         143.1261  142.6443  158.9501 C.2     1  UNL1        0.0561
     25 C         143.3332  143.2105  160.3236 C.2     1  UNL1        0.0047
     26 C         146.0981  141.0949  154.8700 C.3     1  UNL1        0.0773
     27 C         145.6690  141.6989  156.1742 C.ar    1  UNL1        0.1812
     28 N         146.5585  142.4056  157.1536 N.ar    1  UNL1       -0.0602
     29 O         145.7142  142.8458  158.3127 O.2     1  UNL1       -0.3328
     30 C         144.3028  142.4111  158.0496 C.ar    1  UNL1        0.2597
     31 N         144.2749  141.7023  156.7279 N.ar    1  UNL1       -0.1911
     32 C         141.7422  142.3113  158.4770 C.ar    1  UNL1        0.0047
     33 C         141.1331  140.9831  158.8157 C.ar    1  UNL1        0.0015
     34 C         139.7491  140.6501  158.3426 C.ar    1  UNL1        0.0183
     35 C         138.9743  141.6454  157.5308 C.ar    1  UNL1        0.1057
     36 C         139.5834  142.9736  157.1921 C.ar    1  UNL1        0.0183
     37 C         140.9673  143.3066  157.6651 C.ar    1  UNL1        0.0015
     38 S         137.5903  141.3124  157.0577 S.O2    1  UNL1        0.0104
     39 C         136.2064  140.9794  156.5846 C.3     1  UNL1        0.1816
     40 O         137.2621  142.7744  156.9887 O.2     1  UNL1       -0.1686
     41 O         137.9185  139.8504  157.1267 O.2     1  UNL1       -0.1686
@<TRIPOS>BOND
     1    26    27    1
     2    27    28   ar
     3    28    29   ar
     4    29    30   ar
     5    30    24    1
     6    24    25    2
     7    25     1    1
     8     1     2   ar
     9     2     3   ar
    10     3     4   ar
    11     4     5   ar
    12     5     7    1
    13     7     8   ar
    14     8     9   ar
    15     9    17    1
    16    17    18    1
    17    17    19    1
    18    17    20    1
    19    20    21    1
    20    20    22    2
    21    20    23    2
    22     9    10   ar
    23    10    11   ar
    24    11    12   ar
    25    12    13   ar
    26    13    14   ar
    27    14    15   ar
    28    15    16   ar
    29     5     6   ar
    30    24    32    1
    31    32    33   ar
    32    33    34   ar
    33    34    35   ar
    34    35    38    1
    35    38    39    1
    36    38    40    2
    37    38    41    2
    38    35    36   ar
    39    36    37   ar
    40    30    31   ar
    41    31    27   ar
    42     6     1   ar
    43    37    32   ar
    44    16     7   ar
    45    16    11   ar
@<TRIPOS>MOLECULE
*****
 41 45 0 0 0
SMALL
GASTEIGER

@<TRIPOS>ATOM
      1 C         140.1342  143.9935  161.2561 C.ar    1  UNL1        0.0002
      2 C         140.2095  145.4610  161.5574 C.ar    1  UNL1        0.0000
      3 C         140.8308  145.9327  162.8386 C.ar    1  UNL1        0.0000
      4 C         141.3767  144.9369  163.8186 C.ar    1  UNL1        0.0000
      5 C         141.3013  143.4694  163.5174 C.ar    1  UNL1        0.0014
      6 C         140.6800  142.9977  162.2361 C.ar    1  UNL1        0.0000
      7 C         141.8472  142.4737  164.4974 C.ar    1  UNL1        0.0174
      8 C         141.4755  142.5673  165.9476 C.ar    1  UNL1       -0.0012
      9 C         142.0214  141.5715  166.9276 C.ar    1  UNL1       -0.0025
     10 C         142.9390  140.4821  166.4574 C.ar    1  UNL1       -0.0012
     11 C         143.3107  140.3883  165.0071 C.ar    1  UNL1        0.0174
     12 C         144.2282  139.2989  164.5370 C.ar    1  UNL1        0.0031
     13 C         144.5999  139.2052  163.0868 C.ar    1  UNL1        0.0207
     14 C         144.0540  140.2010  162.1068 C.ar    1  UNL1        0.0988
     15 N         143.1364  141.2904  162.5770 N.ar    1  UNL1       -0.2438
     16 C         142.7648  141.3841  164.0271 C.ar    1  UNL1        0.0812
     17 C         141.6497  141.6653  168.3778 C.3     1  UNL1        0.1294
     18 C         142.6383  140.5845  168.7010 C.3     1  UNL1        0.0281
     19 C         140.6611  142.7461  168.0546 C.3     1  UNL1        0.0281
     20 S         141.2781  141.7590  169.8280 S.O2    1  UNL1       -0.0079
     21 C         140.9064  141.8526  171.2782 C.3     1  UNL1        0.1763
     22 O         140.9584  140.2935  169.8407 O.2     1  UNL1       -0.1727
     23 O         141.5978  143.2244  169.8152 O.2     1  UNL1       -0.1727
     24 C         138.8150  142.1950  159.9237 C.2     1  UNL1        0.0561
     25 C         139.5129  143.5218  159.9749 C.2     1  UNL1        0.0047
     26 C         136.6966  142.1527  155.0873 C.3     1  UNL1        0.0773
     27 C         137.2200  141.7039  156.4194 C.ar    1  UNL1        0.1812
     28 N         137.2554  140.2911  156.9223 N.ar    1  UNL1       -0.0602
     29 O         137.8572  140.3032  158.2963 O.2     1  UNL1       -0.3328
     30 C         138.1938  141.7234  158.6425 C.ar    1  UNL1        0.2597
     31 N         137.7999  142.5890  157.4825 N.ar    1  UNL1       -0.1911
     32 C         138.7383  141.3400  161.1537 C.ar    1  UNL1        0.0047
     33 C         137.6886  141.6101  162.1906 C.ar    1  UNL1        0.0015
     34 C         137.6120  140.7549  163.4207 C.ar    1  UNL1        0.0183
     35 C         138.5849  139.6298  163.6137 C.ar    1  UNL1        0.1057
     36 C         139.6346  139.3597  162.5768 C.ar    1  UNL1        0.0183
     37 C         139.7113  140.2148  161.3468 C.ar    1  UNL1        0.0015
     38 S         138.5083  138.7746  164.8438 S.O2    1  UNL1        0.0104
     39 C         138.4316  137.9195  166.0737 C.3     1  UNL1        0.1816
     40 O         138.0613  139.9631  165.6423 O.2     1  UNL1       -0.1686
     41 O         138.9553  137.5861  164.0453 O.2     1  UNL1       -0.1686
@<TRIPOS>BOND
     1    26    27    1
     2    27    28   ar
     3    28    29   ar
     4    29    30   ar
     5    30    24    1
     6    24    25    2
     7    25     1    1
     8     1     2   ar
     9     2     3   ar
    10     3     4   ar
    11     4     5   ar
    12     5     7    1
    13     7     8   ar
    14     8     9   ar
    15     9    17    1
    16    17    18    1
    17    17    19    1
    18    17    20    1
    19    20    21    1
    20    20    22    2
    21    20    23    2
    22     9    10   ar
    23    10    11   ar
    24    11    12   ar
    25    12    13   ar
    26    13    14   ar
    27    14    15   ar
    28    15    16   ar
    29     5     6   ar
    30    24    32    1
    31    32    33   ar
    32    33    34   ar
    33    34    35   ar
    34    35    38    1
    35    38    39    1
    36    38    40    2
    37    38    41    2
    38    35    36   ar
    39    36    37   ar
    40    30    31   ar
    41    31    27   ar
    42     6     1   ar
    43    37    32   ar
    44    16     7   ar
    45    16    11   ar
