@<TRIPOS>MOLECULE
*****
 34 37 0 0 0
SMALL
GASTEIGER

@<TRIPOS>ATOM
      1 O         139.4270  142.7017  166.0302 O.3     1  UNL1       -0.3780
      2 C         140.6515  142.7170  165.1641 C.3     1  UNL1        0.1368
      3 H         139.5492  142.0649  166.7516 H       1  UNL1        0.2111
      4 C         139.7852  142.7364  163.9396 C.ar    1  UNL1        0.0520
      5 C         139.7238  141.5338  163.0452 C.ar    1  UNL1        0.0037
      6 C         138.8576  141.5532  161.8208 C.ar    1  UNL1        0.0206
      7 C         138.0527  142.7752  161.4908 C.ar    1  UNL1        0.1013
      8 N         138.1141  143.9778  162.3852 N.ar    1  UNL1       -0.2167
      9 C         138.9803  143.9584  163.6096 C.ar    1  UNL1        0.2207
     10 F         139.0418  145.1610  164.5041 F       1  UNL1       -0.1835
     11 C         141.8760  142.7324  164.2979 C.ar    1  UNL1        0.0520
     12 C         142.5088  141.4412  163.8708 C.ar    1  UNL1        0.0037
     13 C         143.7334  141.4565  163.0046 C.ar    1  UNL1        0.0206
     14 C         144.3251  142.7630  162.5656 C.ar    1  UNL1        0.1013
     15 N         143.6924  144.0542  162.9927 N.ar    1  UNL1       -0.2167
     16 C         142.4679  144.0389  163.8588 C.ar    1  UNL1        0.2207
     17 F         141.8351  145.3301  164.2860 F       1  UNL1       -0.1835
     18 C         141.5178  142.6977  166.3884 C.3     1  UNL1        0.0635
     19 C         140.9621  142.2075  167.6927 C.ar    1  UNL1       -0.0015
     20 C         140.5516  143.1897  168.7495 C.ar    1  UNL1       -0.0011
     21 C         139.9959  142.6997  170.0537 C.ar    1  UNL1        0.0204
     22 C         139.8508  141.2274  170.3011 C.ar    1  UNL1        0.0988
     23 N         140.2614  140.2452  169.2444 N.ar    1  UNL1       -0.2442
     24 C         140.8170  140.7352  167.9402 C.ar    1  UNL1        0.0774
     25 C         141.2276  139.7530  166.8834 C.ar    1  UNL1        0.0173
     26 C         142.6469  139.2723  166.8170 C.ar    1  UNL1        0.0015
     27 C         143.0574  138.2901  165.7603 C.ar    1  UNL1       -0.0000
     28 C         142.0486  137.7886  164.7699 C.ar    1  UNL1        0.0039
     29 C         140.6293  138.2693  164.8363 C.ar    1  UNL1        0.0715
     30 C         140.2188  139.2515  165.8931 C.ar    1  UNL1        0.0053
     31 C         139.6205  137.7678  163.8459 C.3     1  UNL1        0.4186
     32 F         138.6117  137.2664  162.8556 F       1  UNL1       -0.1659
     33 F         140.4760  138.2694  162.7206 F       1  UNL1       -0.1659
     34 F         138.7650  137.2662  164.9713 F       1  UNL1       -0.1659
@<TRIPOS>BOND
     1     1     2    1
     2     2    18    1
     3    18    19    1
     4    19    20   ar
     5    20    21   ar
     6    21    22   ar
     7    22    23   ar
     8    23    24   ar
     9    24    25    1
    10    25    26   ar
    11    26    27   ar
    12    27    28   ar
    13    28    29   ar
    14    29    31    1
    15    31    32    1
    16    31    33    1
    17    31    34    1
    18    29    30   ar
    19     2     4    1
    20     4     5   ar
    21     5     6   ar
    22     6     7   ar
    23     7     8   ar
    24     8     9   ar
    25     9    10    1
    26     2    11    1
    27    11    12   ar
    28    12    13   ar
    29    13    14   ar
    30    14    15   ar
    31    15    16   ar
    32    16    17    1
    33    24    19   ar
    34    30    25   ar
    35     9     4   ar
    36    16    11   ar
    37     1     3    1
@<TRIPOS>MOLECULE
*****
 34 37 0 0 0
SMALL
GASTEIGER

@<TRIPOS>ATOM
      1 O         140.5378  143.0334  166.5083 O.3     1  UNL1       -0.3780
      2 C         141.4969  141.9455  166.1254 C.3     1  UNL1        0.1368
      3 H         140.7873  143.8568  166.0603 H       1  UNL1        0.2111
      4 C         141.5503  141.4899  167.5536 C.ar    1  UNL1        0.0520
      5 C         140.4484  140.6384  168.1109 C.ar    1  UNL1        0.0037
      6 C         140.5019  140.1829  169.5390 C.ar    1  UNL1        0.0206
      7 C         141.6573  140.5789  170.4098 C.ar    1  UNL1        0.1013
      8 N         142.7592  141.4304  169.8525 N.ar    1  UNL1       -0.2167
      9 C         142.7057  141.8859  168.4244 C.ar    1  UNL1        0.2207
     10 F         143.8077  142.7374  167.8669 F       1  UNL1       -0.1835
     11 C         142.4560  140.8577  165.7425 C.ar    1  UNL1        0.0520
     12 C         142.0949  139.4214  165.9809 C.ar    1  UNL1        0.0037
     13 C         143.0541  138.3335  165.5979 C.ar    1  UNL1        0.0206
     14 C         144.3742  138.6819  164.9767 C.ar    1  UNL1        0.1013
     15 N         144.7352  140.1181  164.7384 N.ar    1  UNL1       -0.2167
     16 C         143.7761  141.2060  165.1213 C.ar    1  UNL1        0.2207
     17 F         144.1371  142.6423  164.8830 F       1  UNL1       -0.1835
     18 C         141.4435  142.4011  164.6973 C.3     1  UNL1        0.0635
     19 C         140.1919  143.0258  164.1556 C.ar    1  UNL1       -0.0015
     20 C         140.1208  144.5107  163.9558 C.ar    1  UNL1       -0.0011
     21 C         138.8693  145.1355  163.4141 C.ar    1  UNL1        0.0204
     22 C         137.6890  144.2754  163.0723 C.ar    1  UNL1        0.0988
     23 N         137.7601  142.7904  163.2721 N.ar    1  UNL1       -0.2442
     24 C         139.0116  142.1657  163.8138 C.ar    1  UNL1        0.0774
     25 C         139.0827  140.6807  164.0136 C.ar    1  UNL1        0.0173
     26 C         139.8331  139.8273  163.0346 C.ar    1  UNL1        0.0015
     27 C         139.9043  138.3424  163.2344 C.ar    1  UNL1       -0.0000
     28 C         139.2250  137.7109  164.4133 C.ar    1  UNL1        0.0039
     29 C         138.4745  138.5643  165.3923 C.ar    1  UNL1        0.0715
     30 C         138.4034  140.0492  165.1924 C.ar    1  UNL1        0.0053
     31 C         137.7952  137.9328  166.5712 C.3     1  UNL1        0.4186
     32 F         137.1159  137.3013  167.7500 F       1  UNL1       -0.1659
     33 F         138.0825  136.5726  166.0081 F       1  UNL1       -0.1659
     34 F         137.5079  139.2930  167.1343 F       1  UNL1       -0.1659
@<TRIPOS>BOND
     1     1     2    1
     2     2    18    1
     3    18    19    1
     4    19    20   ar
     5    20    21   ar
     6    21    22   ar
     7    22    23   ar
     8    23    24   ar
     9    24    25    1
    10    25    26   ar
    11    26    27   ar
    12    27    28   ar
    13    28    29   ar
    14    29    31    1
    15    31    32    1
    16    31    33    1
    17    31    34    1
    18    29    30   ar
    19     2     4    1
    20     4     5   ar
    21     5     6   ar
    22     6     7   ar
    23     7     8   ar
    24     8     9   ar
    25     9    10    1
    26     2    11    1
    27    11    12   ar
    28    12    13   ar
    29    13    14   ar
    30    14    15   ar
    31    15    16   ar
    32    16    17    1
    33    24    19   ar
    34    30    25   ar
    35     9     4   ar
    36    16    11   ar
    37     1     3    1
@<TRIPOS>MOLECULE
*****
 34 37 0 0 0
SMALL
GASTEIGER

@<TRIPOS>ATOM
      1 O         142.8981  141.8205  166.7263 O.3     1  UNL1       -0.3780
      2 C         142.8379  141.0477  165.4422 C.3     1  UNL1        0.1368
      3 H         142.2156  141.4931  167.3330 H       1  UNL1        0.2111
      4 C         143.0062  142.3214  164.6678 C.ar    1  UNL1        0.0520
      5 C         141.8178  143.1941  164.3922 C.ar    1  UNL1        0.0037
      6 C         141.9862  144.4677  163.6178 C.ar    1  UNL1        0.0206
      7 C         143.3429  144.8685  163.1192 C.ar    1  UNL1        0.1013
      8 N         144.5313  143.9957  163.3948 N.ar    1  UNL1       -0.2167
      9 C         144.3629  142.7222  164.1691 C.ar    1  UNL1        0.2207
     10 F         145.5513  141.8493  164.4448 F       1  UNL1       -0.1835
     11 C         142.7776  140.2750  164.1580 C.ar    1  UNL1        0.0520
     12 C         141.6304  140.4784  163.2133 C.ar    1  UNL1        0.0037
     13 C         141.5702  139.7056  161.9291 C.ar    1  UNL1        0.0206
     14 C         142.6572  138.7294  161.5895 C.ar    1  UNL1        0.1013
     15 N         143.8045  138.5260  162.5342 N.ar    1  UNL1       -0.2167
     16 C         143.8647  139.2987  163.8184 C.ar    1  UNL1        0.2207
     17 F         145.0120  139.0953  164.7630 F       1  UNL1       -0.1835
     18 C         142.6695  139.7741  166.2164 C.3     1  UNL1        0.0635
     19 C         141.9800  139.7917  167.5485 C.ar    1  UNL1       -0.0015
     20 C         142.7854  139.7074  168.8111 C.ar    1  UNL1       -0.0011
     21 C         142.0959  139.7249  170.1431 C.ar    1  UNL1        0.0204
     22 C         140.6010  139.8269  170.2124 C.ar    1  UNL1        0.0988
     23 N         139.7956  139.9112  168.9498 N.ar    1  UNL1       -0.2442
     24 C         140.4851  139.8936  167.6178 C.ar    1  UNL1        0.0774
     25 C         139.6797  139.9779  166.3552 C.ar    1  UNL1        0.0173
     26 C         139.3735  138.7331  165.5763 C.ar    1  UNL1        0.0015
     27 C         138.5682  138.8174  164.3137 C.ar    1  UNL1       -0.0000
     28 C         138.0689  140.1466  163.8299 C.ar    1  UNL1        0.0039
     29 C         138.3750  141.3914  164.6088 C.ar    1  UNL1        0.0715
     30 C         139.1804  141.3071  165.8714 C.ar    1  UNL1        0.0053
     31 C         137.8757  142.7206  164.1251 C.3     1  UNL1        0.4186
     32 F         137.3764  144.0498  163.6413 F       1  UNL1       -0.1659
     33 F         137.1425  142.0387  163.0082 F       1  UNL1       -0.1659
     34 F         138.6089  143.4025  165.2419 F       1  UNL1       -0.1659
@<TRIPOS>BOND
     1     1     2    1
     2     2    18    1
     3    18    19    1
     4    19    20   ar
     5    20    21   ar
     6    21    22   ar
     7    22    23   ar
     8    23    24   ar
     9    24    25    1
    10    25    26   ar
    11    26    27   ar
    12    27    28   ar
    13    28    29   ar
    14    29    31    1
    15    31    32    1
    16    31    33    1
    17    31    34    1
    18    29    30   ar
    19     2     4    1
    20     4     5   ar
    21     5     6   ar
    22     6     7   ar
    23     7     8   ar
    24     8     9   ar
    25     9    10    1
    26     2    11    1
    27    11    12   ar
    28    12    13   ar
    29    13    14   ar
    30    14    15   ar
    31    15    16   ar
    32    16    17    1
    33    24    19   ar
    34    30    25   ar
    35     9     4   ar
    36    16    11   ar
    37     1     3    1
@<TRIPOS>MOLECULE
*****
 34 37 0 0 0
SMALL
GASTEIGER

@<TRIPOS>ATOM
      1 O         142.2375  142.8780  166.2232 O.3     1  UNL1       -0.3780
      2 C         141.1435  142.8693  165.1971 C.3     1  UNL1        0.1368
      3 H         141.9704  143.4285  166.9759 H       1  UNL1        0.2111
      4 C         142.1629  143.0325  164.1088 C.ar    1  UNL1        0.0520
      5 C         142.8100  141.8240  163.4999 C.ar    1  UNL1        0.0037
      6 C         143.8293  141.9872  162.4117 C.ar    1  UNL1        0.0206
      7 C         144.2016  143.3589  161.9324 C.ar    1  UNL1        0.1013
      8 N         143.5545  144.5674  162.5413 N.ar    1  UNL1       -0.2167
      9 C         142.5352  144.4042  163.6295 C.ar    1  UNL1        0.2207
     10 F         141.8881  145.6127  164.2384 F       1  UNL1       -0.1835
     11 C         140.0495  142.8605  164.1709 C.ar    1  UNL1        0.0520
     12 C         139.8982  141.6895  163.2458 C.ar    1  UNL1        0.0037
     13 C         138.8041  141.6808  162.2196 C.ar    1  UNL1        0.0206
     14 C         137.8614  142.8431  162.1185 C.ar    1  UNL1        0.1013
     15 N         138.0127  144.0142  163.0436 N.ar    1  UNL1       -0.2167
     16 C         139.1067  144.0229  164.0698 C.ar    1  UNL1        0.2207
     17 F         139.2580  145.1940  164.9948 F       1  UNL1       -0.1835
     18 C         140.1241  142.7061  166.2852 C.3     1  UNL1        0.0635
     19 C         140.5192  142.0972  167.5980 C.ar    1  UNL1       -0.0015
     20 C         140.8274  142.9793  168.7713 C.ar    1  UNL1       -0.0011
     21 C         141.2225  142.3705  170.0840 C.ar    1  UNL1        0.0204
     22 C         141.3094  140.8796  170.2233 C.ar    1  UNL1        0.0988
     23 N         141.0013  139.9974  169.0499 N.ar    1  UNL1       -0.2442
     24 C         140.6062  140.6062  167.7372 C.ar    1  UNL1        0.0774
     25 C         140.2980  139.7241  166.5639 C.ar    1  UNL1        0.0173
     26 C         138.8991  139.2293  166.3445 C.ar    1  UNL1        0.0015
     27 C         138.5909  138.3471  165.1711 C.ar    1  UNL1       -0.0000
     28 C         139.6817  137.9598  164.2171 C.ar    1  UNL1        0.0039
     29 C         141.0806  138.4546  164.4364 C.ar    1  UNL1        0.0715
     30 C         141.3887  139.3368  165.6098 C.ar    1  UNL1        0.0053
     31 C         142.1714  138.0673  163.4824 C.3     1  UNL1        0.4186
     32 F         143.2621  137.6800  162.5283 F       1  UNL1       -0.1659
     33 F         141.1447  137.5535  162.5171 F       1  UNL1       -0.1659
     34 F         143.1981  138.5812  164.4476 F       1  UNL1       -0.1659
@<TRIPOS>BOND
     1     1     2    1
     2     2    18    1
     3    18    19    1
     4    19    20   ar
     5    20    21   ar
     6    21    22   ar
     7    22    23   ar
     8    23    24   ar
     9    24    25    1
    10    25    26   ar
    11    26    27   ar
    12    27    28   ar
    13    28    29   ar
    14    29    31    1
    15    31    32    1
    16    31    33    1
    17    31    34    1
    18    29    30   ar
    19     2     4    1
    20     4     5   ar
    21     5     6   ar
    22     6     7   ar
    23     7     8   ar
    24     8     9   ar
    25     9    10    1
    26     2    11    1
    27    11    12   ar
    28    12    13   ar
    29    13    14   ar
    30    14    15   ar
    31    15    16   ar
    32    16    17    1
    33    24    19   ar
    34    30    25   ar
    35     9     4   ar
    36    16    11   ar
    37     1     3    1
@<TRIPOS>MOLECULE
*****
 34 37 0 0 0
SMALL
GASTEIGER

@<TRIPOS>ATOM
      1 O         143.8714  142.4088  166.2864 O.3     1  UNL1       -0.3780
      2 C         143.2541  141.2289  165.5959 C.3     1  UNL1        0.1368
      3 H         143.2694  142.7318  166.9750 H       1  UNL1        0.2111
      4 C         143.6938  141.7749  164.2697 C.ar    1  UNL1        0.0520
      5 C         142.9009  142.8614  163.6058 C.ar    1  UNL1        0.0037
      6 C         143.3406  143.4073  162.2797 C.ar    1  UNL1        0.0206
      7 C         144.5732  142.8667  161.6175 C.ar    1  UNL1        0.1013
      8 N         145.3661  141.7803  162.2814 N.ar    1  UNL1       -0.2167
      9 C         144.9264  141.2343  163.6075 C.ar    1  UNL1        0.2207
     10 F         145.7193  140.1478  164.2715 F       1  UNL1       -0.1835
     11 C         142.6368  140.0490  164.9054 C.ar    1  UNL1        0.0520
     12 C         141.5966  140.2600  163.8455 C.ar    1  UNL1        0.0037
     13 C         140.9793  139.0801  163.1550 C.ar    1  UNL1        0.0206
     14 C         141.4022  137.6892  163.5244 C.ar    1  UNL1        0.1013
     15 N         142.4424  137.4782  164.5843 N.ar    1  UNL1       -0.2167
     16 C         143.0597  138.6580  165.2748 C.ar    1  UNL1        0.2207
     17 F         144.0999  138.4470  166.3347 F       1  UNL1       -0.1835
     18 C         142.8144  140.6829  166.9219 C.3     1  UNL1        0.0635
     19 C         142.2966  141.6108  167.9807 C.ar    1  UNL1       -0.0015
     20 C         143.2415  142.2113  168.9791 C.ar    1  UNL1       -0.0011
     21 C         142.7238  143.1392  170.0378 C.ar    1  UNL1        0.0204
     22 C         141.2613  143.4666  170.0982 C.ar    1  UNL1        0.0988
     23 N         140.3164  142.8661  169.0999 N.ar    1  UNL1       -0.2442
     24 C         140.8341  141.9382  168.0411 C.ar    1  UNL1        0.0774
     25 C         139.8892  141.3378  167.0428 C.ar    1  UNL1        0.0173
     26 C         139.4482  142.1371  165.8526 C.ar    1  UNL1        0.0015
     27 C         138.5033  141.5366  164.8543 C.ar    1  UNL1       -0.0000
     28 C         137.9995  140.1369  165.0461 C.ar    1  UNL1        0.0039
     29 C         138.4405  139.3376  166.2363 C.ar    1  UNL1        0.0715
     30 C         139.3854  139.9381  167.2347 C.ar    1  UNL1        0.0053
     31 C         137.9367  137.9378  166.4282 C.3     1  UNL1        0.4186
     32 F         137.4328  136.5381  166.6202 F       1  UNL1       -0.1659
     33 F         137.0849  138.4013  167.5726 F       1  UNL1       -0.1659
     34 F         138.7884  137.4743  165.2839 F       1  UNL1       -0.1659
@<TRIPOS>BOND
     1     1     2    1
     2     2    18    1
     3    18    19    1
     4    19    20   ar
     5    20    21   ar
     6    21    22   ar
     7    22    23   ar
     8    23    24   ar
     9    24    25    1
    10    25    26   ar
    11    26    27   ar
    12    27    28   ar
    13    28    29   ar
    14    29    31    1
    15    31    32    1
    16    31    33    1
    17    31    34    1
    18    29    30   ar
    19     2     4    1
    20     4     5   ar
    21     5     6   ar
    22     6     7   ar
    23     7     8   ar
    24     8     9   ar
    25     9    10    1
    26     2    11    1
    27    11    12   ar
    28    12    13   ar
    29    13    14   ar
    30    14    15   ar
    31    15    16   ar
    32    16    17    1
    33    24    19   ar
    34    30    25   ar
    35     9     4   ar
    36    16    11   ar
    37     1     3    1
@<TRIPOS>MOLECULE
*****
 34 37 0 0 0
SMALL
GASTEIGER

@<TRIPOS>ATOM
      1 O         143.0474  144.6280  164.0440 O.3     1  UNL1       -0.3780
      2 C         141.8714  143.6990  163.9805 C.3     1  UNL1        0.1368
      3 H         143.2106  144.8804  164.9662 H       1  UNL1        0.2111
      4 C         141.3512  144.4392  162.7840 C.ar    1  UNL1        0.0520
      5 C         140.1775  145.3625  162.9252 C.ar    1  UNL1        0.0037
      6 C         139.6574  146.1026  161.7287 C.ar    1  UNL1        0.0206
      7 C         140.3109  145.9196  160.3911 C.ar    1  UNL1        0.1013
      8 N         141.4847  144.9964  160.2499 N.ar    1  UNL1       -0.2167
      9 C         142.0048  144.2562  161.4463 C.ar    1  UNL1        0.2207
     10 F         143.1786  143.3329  161.3052 F       1  UNL1       -0.1835
     11 C         140.6955  142.7700  163.9170 C.ar    1  UNL1        0.0520
     12 C         140.6377  141.7042  162.8631 C.ar    1  UNL1        0.0037
     13 C         139.4617  140.7752  162.7996 C.ar    1  UNL1        0.0206
     14 C         138.3435  140.9120  163.7900 C.ar    1  UNL1        0.1013
     15 N         138.4012  141.9779  164.8438 N.ar    1  UNL1       -0.2167
     16 C         139.5772  142.9069  164.9073 C.ar    1  UNL1        0.2207
     17 F         139.6349  143.9727  165.9612 F       1  UNL1       -0.1835
     18 C         142.3916  142.9588  165.1769 C.3     1  UNL1        0.0635
     19 C         143.2421  141.7371  164.9916 C.ar    1  UNL1       -0.0015
     20 C         144.3740  141.7535  164.0075 C.ar    1  UNL1       -0.0011
     21 C         145.2244  140.5319  163.8222 C.ar    1  UNL1        0.0204
     22 C         144.9430  139.2939  164.6211 C.ar    1  UNL1        0.0988
     23 N         143.8111  139.2776  165.6052 N.ar    1  UNL1       -0.2442
     24 C         142.9606  140.4992  165.7905 C.ar    1  UNL1        0.0774
     25 C         141.8287  140.4828  166.7746 C.ar    1  UNL1        0.0173
     26 C         141.9265  141.2768  168.0434 C.ar    1  UNL1        0.0015
     27 C         140.7946  141.2605  169.0275 C.ar    1  UNL1       -0.0000
     28 C         139.5649  140.4501  168.7429 C.ar    1  UNL1        0.0039
     29 C         139.4671  139.6560  167.4741 C.ar    1  UNL1        0.0715
     30 C         140.5990  139.6724  166.4899 C.ar    1  UNL1        0.0053
     31 C         138.2374  138.8456  167.1893 C.3     1  UNL1        0.4186
     32 F         137.0077  138.0351  166.9047 F       1  UNL1       -0.1659
     33 F         137.6832  139.2143  168.5335 F       1  UNL1       -0.1659
     34 F         138.7916  138.4768  165.8452 F       1  UNL1       -0.1659
@<TRIPOS>BOND
     1     1     2    1
     2     2    18    1
     3    18    19    1
     4    19    20   ar
     5    20    21   ar
     6    21    22   ar
     7    22    23   ar
     8    23    24   ar
     9    24    25    1
    10    25    26   ar
    11    26    27   ar
    12    27    28   ar
    13    28    29   ar
    14    29    31    1
    15    31    32    1
    16    31    33    1
    17    31    34    1
    18    29    30   ar
    19     2     4    1
    20     4     5   ar
    21     5     6   ar
    22     6     7   ar
    23     7     8   ar
    24     8     9   ar
    25     9    10    1
    26     2    11    1
    27    11    12   ar
    28    12    13   ar
    29    13    14   ar
    30    14    15   ar
    31    15    16   ar
    32    16    17    1
    33    24    19   ar
    34    30    25   ar
    35     9     4   ar
    36    16    11   ar
    37     1     3    1
@<TRIPOS>MOLECULE
*****
 34 37 0 0 0
SMALL
GASTEIGER

@<TRIPOS>ATOM
      1 O         139.9567  142.3393  167.0992 O.3     1  UNL1       -0.3780
      2 C         139.8529  141.4690  165.8819 C.3     1  UNL1        0.1368
      3 H         139.4045  141.9723  167.8072 H       1  UNL1        0.2111
      4 C         139.7466  142.6904  165.0176 C.ar    1  UNL1        0.0520
      5 C         140.9767  143.4794  164.6797 C.ar    1  UNL1        0.0037
      6 C         140.8703  144.7008  163.8154 C.ar    1  UNL1        0.0206
      7 C         139.5338  145.1331  163.2891 C.ar    1  UNL1        0.1013
      8 N         138.3037  144.3441  163.6271 N.ar    1  UNL1       -0.2167
      9 C         138.4101  143.1228  164.4914 C.ar    1  UNL1        0.2207
     10 F         137.1800  142.3337  164.8294 F       1  UNL1       -0.1835
     11 C         139.7491  140.5987  164.6647 C.ar    1  UNL1        0.0520
     12 C         140.7757  140.7059  163.5763 C.ar    1  UNL1        0.0037
     13 C         140.6718  139.8355  162.3590 C.ar    1  UNL1        0.0206
     14 C         139.5415  138.8580  162.2302 C.ar    1  UNL1        0.1013
     15 N         138.5149  138.7508  163.3186 N.ar    1  UNL1       -0.2167
     16 C         138.6187  139.6211  164.5358 C.ar    1  UNL1        0.2207
     17 F         137.5921  139.5139  165.6242 F       1  UNL1       -0.1835
     18 C         139.9592  140.2476  166.7462 C.3     1  UNL1        0.0635
     19 C         140.7314  140.3029  168.0310 C.ar    1  UNL1       -0.0015
     20 C         140.0037  140.3630  169.3413 C.ar    1  UNL1       -0.0011
     21 C         140.7758  140.4182  170.6261 C.ar    1  UNL1        0.0204
     22 C         142.2756  140.4133  170.6006 C.ar    1  UNL1        0.0988
     23 N         143.0032  140.3532  169.2903 N.ar    1  UNL1       -0.2442
     24 C         142.2311  140.2980  168.0055 C.ar    1  UNL1        0.0774
     25 C         142.9588  140.2379  166.6952 C.ar    1  UNL1        0.0173
     26 C         143.3163  138.9100  166.0960 C.ar    1  UNL1        0.0015
     27 C         144.0439  138.8499  164.7857 C.ar    1  UNL1       -0.0000
     28 C         144.4141  140.1176  164.0746 C.ar    1  UNL1        0.0039
     29 C         144.0566  141.4455  164.6737 C.ar    1  UNL1        0.0715
     30 C         143.3289  141.5056  165.9840 C.ar    1  UNL1        0.0053
     31 C         144.4267  142.7133  163.9625 C.3     1  UNL1        0.4186
     32 F         144.7968  143.9810  163.2513 F       1  UNL1       -0.1659
     33 F         143.7440  142.2170  162.7225 F       1  UNL1       -0.1659
     34 F         145.1094  143.2096  165.2025 F       1  UNL1       -0.1659
@<TRIPOS>BOND
     1     1     2    1
     2     2    18    1
     3    18    19    1
     4    19    20   ar
     5    20    21   ar
     6    21    22   ar
     7    22    23   ar
     8    23    24   ar
     9    24    25    1
    10    25    26   ar
    11    26    27   ar
    12    27    28   ar
    13    28    29   ar
    14    29    31    1
    15    31    32    1
    16    31    33    1
    17    31    34    1
    18    29    30   ar
    19     2     4    1
    20     4     5   ar
    21     5     6   ar
    22     6     7   ar
    23     7     8   ar
    24     8     9   ar
    25     9    10    1
    26     2    11    1
    27    11    12   ar
    28    12    13   ar
    29    13    14   ar
    30    14    15   ar
    31    15    16   ar
    32    16    17    1
    33    24    19   ar
    34    30    25   ar
    35     9     4   ar
    36    16    11   ar
    37     1     3    1
@<TRIPOS>MOLECULE
*****
 34 37 0 0 0
SMALL
GASTEIGER

@<TRIPOS>ATOM
      1 O         141.5488  139.8674  165.6276 O.3     1  UNL1       -0.3780
      2 C         140.6105  140.0329  164.4691 C.3     1  UNL1        0.1368
      3 H         141.4055  140.5846  166.2647 H       1  UNL1        0.2111
      4 C         141.7240  139.7022  163.5199 C.ar    1  UNL1        0.0520
      5 C         142.4644  140.8028  162.8197 C.ar    1  UNL1        0.0037
      6 C         143.5778  140.4721  161.8706 C.ar    1  UNL1        0.0206
      7 C         143.9509  139.0407  161.6217 C.ar    1  UNL1        0.1013
      8 N         143.2105  137.9401  162.3219 N.ar    1  UNL1       -0.2167
      9 C         142.0971  138.2708  163.2710 C.ar    1  UNL1        0.2207
     10 F         141.3566  137.1701  163.9713 F       1  UNL1       -0.1835
     11 C         139.6722  140.1984  163.3106 C.ar    1  UNL1        0.0520
     12 C         139.6892  141.4645  162.5065 C.ar    1  UNL1        0.0037
     13 C         138.7509  141.6300  161.3480 C.ar    1  UNL1        0.0206
     14 C         137.7955  140.5292  160.9935 C.ar    1  UNL1        0.1013
     15 N         137.7785  139.2631  161.7975 N.ar    1  UNL1       -0.2167
     16 C         138.7168  139.0976  162.9560 C.ar    1  UNL1        0.2207
     17 F         138.6998  137.8314  163.7601 F       1  UNL1       -0.1835
     18 C         139.4970  140.3636  165.4181 C.3     1  UNL1        0.0635
     19 C         139.8100  140.8936  166.7861 C.ar    1  UNL1       -0.0015
     20 C         139.6971  139.9956  167.9823 C.ar    1  UNL1       -0.0011
     21 C         140.0101  140.5256  169.3501 C.ar    1  UNL1        0.0204
     22 C         140.4359  141.9535  169.5218 C.ar    1  UNL1        0.0988
     23 N         140.5488  142.8515  168.3257 N.ar    1  UNL1       -0.2442
     24 C         140.2359  142.3216  166.9578 C.ar    1  UNL1        0.0774
     25 C         140.3488  143.2196  165.7616 C.ar    1  UNL1        0.0173
     26 C         139.1346  143.9279  165.2382 C.ar    1  UNL1        0.0015
     27 C         139.2475  144.8259  164.0420 C.ar    1  UNL1       -0.0000
     28 C         140.5746  145.0156  163.3692 C.ar    1  UNL1        0.0039
     29 C         141.7888  144.3073  163.8926 C.ar    1  UNL1        0.0715
     30 C         141.6759  143.4093  165.0888 C.ar    1  UNL1        0.0053
     31 C         143.1160  144.4970  163.2198 C.3     1  UNL1        0.4186
     32 F         144.4432  144.6866  162.5470 F       1  UNL1       -0.1659
     33 F         142.5248  144.0311  161.9223 F       1  UNL1       -0.1659
     34 F         143.7072  144.9628  164.5173 F       1  UNL1       -0.1659
@<TRIPOS>BOND
     1     1     2    1
     2     2    18    1
     3    18    19    1
     4    19    20   ar
     5    20    21   ar
     6    21    22   ar
     7    22    23   ar
     8    23    24   ar
     9    24    25    1
    10    25    26   ar
    11    26    27   ar
    12    27    28   ar
    13    28    29   ar
    14    29    31    1
    15    31    32    1
    16    31    33    1
    17    31    34    1
    18    29    30   ar
    19     2     4    1
    20     4     5   ar
    21     5     6   ar
    22     6     7   ar
    23     7     8   ar
    24     8     9   ar
    25     9    10    1
    26     2    11    1
    27    11    12   ar
    28    12    13   ar
    29    13    14   ar
    30    14    15   ar
    31    15    16   ar
    32    16    17    1
    33    24    19   ar
    34    30    25   ar
    35     9     4   ar
    36    16    11   ar
    37     1     3    1
@<TRIPOS>MOLECULE
*****
 34 37 0 0 0
SMALL
GASTEIGER

@<TRIPOS>ATOM
      1 O         143.8812  142.4164  166.1650 O.3     1  UNL1       -0.3780
      2 C         143.2161  141.3088  165.4029 C.3     1  UNL1        0.1368
      3 H         143.2844  142.7339  166.8607 H       1  UNL1        0.2111
      4 C         143.7075  141.8999  164.1148 C.ar    1  UNL1        0.0520
      5 C         142.9608  143.0338  163.4770 C.ar    1  UNL1        0.0037
      6 C         143.4522  143.6249  162.1890 C.ar    1  UNL1        0.0206
      7 C         144.6902  143.0822  161.5387 C.ar    1  UNL1        0.1013
      8 N         145.4369  141.9484  162.1766 N.ar    1  UNL1       -0.2167
      9 C         144.9455  141.3572  163.4646 C.ar    1  UNL1        0.2207
     10 F         145.6922  140.2233  164.1025 F       1  UNL1       -0.1835
     11 C         142.5511  140.2011  164.6408 C.ar    1  UNL1        0.0520
     12 C         141.5067  140.5201  163.6125 C.ar    1  UNL1        0.0037
     13 C         140.8416  139.4124  162.8504 C.ar    1  UNL1        0.0206
     14 C         141.2210  137.9858  163.1166 C.ar    1  UNL1        0.1013
     15 N         142.2654  137.6669  164.1449 N.ar    1  UNL1       -0.2167
     16 C         142.9304  138.7745  164.9070 C.ar    1  UNL1        0.2207
     17 F         143.9749  138.4555  165.9354 F       1  UNL1       -0.1835
     18 C         142.7248  140.7176  166.6909 C.3     1  UNL1        0.0635
     19 C         142.3242  141.6156  167.8238 C.ar    1  UNL1       -0.0015
     20 C         143.2816  141.8765  168.9486 C.ar    1  UNL1       -0.0011
     21 C         142.8811  142.7745  170.0813 C.ar    1  UNL1        0.0204
     22 C         141.5231  143.4114  170.0893 C.ar    1  UNL1        0.0988
     23 N         140.5657  143.1505  168.9645 N.ar    1  UNL1       -0.2442
     24 C         140.9662  142.2525  167.8317 C.ar    1  UNL1        0.0774
     25 C         140.0088  141.9916  166.7069 C.ar    1  UNL1        0.0173
     26 C         139.3294  140.6590  166.5942 C.ar    1  UNL1        0.0015
     27 C         138.3720  140.3981  165.4694 C.ar    1  UNL1       -0.0000
     28 C         138.0939  141.4696  164.4573 C.ar    1  UNL1        0.0039
     29 C         138.7732  142.8022  164.5700 C.ar    1  UNL1        0.0715
     30 C         139.7307  143.0631  165.6948 C.ar    1  UNL1        0.0053
     31 C         138.4952  143.8738  163.5579 C.3     1  UNL1        0.4186
     32 F         138.2171  144.9454  162.5458 F       1  UNL1       -0.1659
     33 F         139.6479  143.3900  162.7290 F       1  UNL1       -0.1659
     34 F         137.3425  144.3577  164.3868 F       1  UNL1       -0.1659
@<TRIPOS>BOND
     1     1     2    1
     2     2    18    1
     3    18    19    1
     4    19    20   ar
     5    20    21   ar
     6    21    22   ar
     7    22    23   ar
     8    23    24   ar
     9    24    25    1
    10    25    26   ar
    11    26    27   ar
    12    27    28   ar
    13    28    29   ar
    14    29    31    1
    15    31    32    1
    16    31    33    1
    17    31    34    1
    18    29    30   ar
    19     2     4    1
    20     4     5   ar
    21     5     6   ar
    22     6     7   ar
    23     7     8   ar
    24     8     9   ar
    25     9    10    1
    26     2    11    1
    27    11    12   ar
    28    12    13   ar
    29    13    14   ar
    30    14    15   ar
    31    15    16   ar
    32    16    17    1
    33    24    19   ar
    34    30    25   ar
    35     9     4   ar
    36    16    11   ar
    37     1     3    1
