@<TRIPOS>MOLECULE
*****
 47 52 0 0 0
SMALL
GASTEIGER

@<TRIPOS>ATOM
      1 N         139.9086  141.4639  161.8014 N.am    1  UNL1       -0.3021
      2 C         138.8400  141.5108  162.8529 C.2     1  UNL1        0.2458
      3 O         137.5042  142.1166  162.5383 O.2     1  UNL1       -0.2701
      4 H         140.7853  141.0663  162.0078 H       1  UNL1        0.1497
      5 C         137.7266  141.4581  155.6378 C.ar    1  UNL1        0.1450
      6 C         138.1498  142.8579  155.3042 C.ar    1  UNL1        0.0371
      7 C         138.8401  143.6990  156.3367 C.ar    1  UNL1       -0.0014
      8 C         139.1072  143.1403  157.7028 C.ar    1  UNL1       -0.0258
      9 C         138.6840  141.7404  158.0365 C.ar    1  UNL1       -0.0215
     10 C         137.9937  140.8993  157.0040 C.ar    1  UNL1        0.0330
     11 C         138.9512  141.1816  159.4027 C.3     1  UNL1        0.0457
     12 C         139.6415  142.0227  160.4352 C.3     1  UNL1        0.0765
     13 C         140.0646  143.4225  160.1015 C.3     1  UNL1        0.0246
     14 C         139.7975  143.9814  158.7353 C.3     1  UNL1        0.0277
     15 O         137.0363  140.6170  154.6053 O.3     1  UNL1       -0.4537
     16 O         130.6171  140.2364  157.0340 O.2     1  UNL1       -0.2747
     17 C         131.8965  140.4453  156.2793 C.2     1  UNL1        0.2275
     18 C         133.1982  139.9901  156.8694 C.3     1  UNL1        0.0903
     19 C         134.4776  140.1991  156.1147 C.3     1  UNL1        0.0419
     20 C         134.4552  140.8632  154.7699 C.ar    1  UNL1        0.0445
     21 C         135.7346  141.0722  154.0152 C.ar    1  UNL1        0.1455
     22 C         135.7122  141.7363  152.6705 C.ar    1  UNL1        0.0579
     23 C         134.4104  142.1915  152.0804 C.ar    1  UNL1        0.1034
     24 N         133.1310  141.9825  152.8351 N.ar    1  UNL1       -0.2291
     25 C         133.1534  141.3184  154.1799 C.ar    1  UNL1        0.1330
     26 N         131.8741  141.1094  154.9346 N.am    1  UNL1       -0.2695
     27 H         131.0197  141.4082  154.5473 H       1  UNL1        0.1562
     28 C         139.1070  140.9520  164.2191 C.ar    1  UNL1        0.0530
     29 C         140.1050  141.6176  165.1197 C.ar    1  UNL1        0.0016
     30 C         140.3721  141.0588  166.4858 C.ar    1  UNL1       -0.0060
     31 C         139.6411  139.8344  166.9515 C.ar    1  UNL1        0.0009
     32 C         138.6431  139.1689  166.0509 C.ar    1  UNL1        0.0713
     33 C         138.3761  139.7277  164.6846 C.ar    1  UNL1        0.0083
     34 C         137.9122  137.9446  166.5164 C.3     1  UNL1        0.4186
     35 F         137.1813  136.7203  166.9820 F       1  UNL1       -0.1659
     36 F         137.3419  138.7220  167.6654 F       1  UNL1       -0.1659
     37 F         138.4825  137.1672  165.3674 F       1  UNL1       -0.1659
     38 C         141.3701  141.7243  167.3864 C.3     1  UNL1        0.0993
     39 N         141.0761  141.8758  168.8495 N.3     1  UNL1       -0.2638
     40 C         140.2046  142.9993  169.3269 C.3     1  UNL1        0.1049
     41 C         139.9105  143.1508  170.7901 C.3     1  UNL1        0.1595
     42 O         140.4880  142.1787  171.7757 O.3     1  UNL1       -0.3508
     43 C         141.3596  141.0550  171.2982 C.3     1  UNL1        0.1606
     44 C         141.6536  140.9036  169.8351 C.3     1  UNL1        0.1172
     45 C         142.5251  139.7800  169.3576 C.3     1  UNL1        0.1556
     46 O         142.9309  138.6907  170.3056 O.3     1  UNL1       -0.3805
     47 H         143.5047  139.0594  170.9953 H       1  UNL1        0.2105
@<TRIPOS>BOND
     1    16    17    2
     2    17    18    1
     3    18    19    1
     4    19    20    1
     5    20    21   ar
     6    21    15    1
     7    15     5    1
     8     5     6   ar
     9     6     7   ar
    10     7     8   ar
    11     8     9   ar
    12     9    10   ar
    13     9    11    1
    14    11    12    1
    15    12     1    1
    16     1     2   am
    17     2     3    2
    18     2    28    1
    19    28    29   ar
    20    29    30   ar
    21    30    38    1
    22    38    39    1
    23    39    40    1
    24    40    41    1
    25    41    42    1
    26    42    43    1
    27    43    44    1
    28    44    45    1
    29    45    46    1
    30    30    31   ar
    31    31    32   ar
    32    32    34    1
    33    34    35    1
    34    34    36    1
    35    34    37    1
    36    32    33   ar
    37    12    13    1
    38    13    14    1
    39    21    22   ar
    40    22    23   ar
    41    23    24   ar
    42    24    25   ar
    43    25    26    1
    44    26    17   am
    45    25    20   ar
    46    10     5   ar
    47    33    28   ar
    48    14     8    1
    49    44    39    1
    50     1     4    1
    51    46    47    1
    52    26    27    1
@<TRIPOS>MOLECULE
*****
 47 52 0 0 0
SMALL
GASTEIGER

@<TRIPOS>ATOM
      1 N         141.1201  139.7437  161.0941 N.am    1  UNL1       -0.3021
      2 C         139.8621  139.2879  161.7721 C.2     1  UNL1        0.2458
      3 O         138.8192  138.5410  160.9943 O.2     1  UNL1       -0.2701
      4 H         141.8045  140.2338  161.6046 H       1  UNL1        0.1497
      5 C         143.1483  136.3430  155.8910 C.ar    1  UNL1        0.1450
      6 C         142.6721  137.3158  154.8534 C.ar    1  UNL1        0.0371
      7 C         141.9808  138.5797  155.2714 C.ar    1  UNL1       -0.0014
      8 C         141.7656  138.8707  156.7270 C.ar    1  UNL1       -0.0258
      9 C         142.2418  137.8978  157.7648 C.ar    1  UNL1       -0.0215
     10 C         142.9331  136.6340  157.3468 C.ar    1  UNL1        0.0330
     11 C         142.0266  138.1888  159.2204 C.3     1  UNL1        0.0457
     12 C         141.3352  139.4527  159.6384 C.3     1  UNL1        0.0765
     13 C         140.8591  140.4255  158.6007 C.3     1  UNL1        0.0246
     14 C         141.0742  140.1345  157.1450 C.3     1  UNL1        0.0277
     15 O         143.8396  135.0791  155.4730 O.3     1  UNL1       -0.4537
     16 O         144.8980  129.1874  158.8520 O.2     1  UNL1       -0.2747
     17 C         144.4445  130.3365  158.0012 C.2     1  UNL1        0.2275
     18 C         145.2002  131.6319  158.0256 C.3     1  UNL1        0.0903
     19 C         144.7467  132.7810  157.1748 C.3     1  UNL1        0.0419
     20 C         143.5374  132.6346  156.2994 C.ar    1  UNL1        0.0445
     21 C         143.0839  133.7837  155.4486 C.ar    1  UNL1        0.1455
     22 C         141.8747  133.6373  154.5733 C.ar    1  UNL1        0.0579
     23 C         141.1189  132.3418  154.5488 C.ar    1  UNL1        0.1034
     24 N         141.5724  131.1927  155.3996 N.ar    1  UNL1       -0.2291
     25 C         142.7817  131.3392  156.2750 C.ar    1  UNL1        0.1330
     26 N         143.2352  130.1901  157.1258 N.am    1  UNL1       -0.2695
     27 H         142.7392  129.3398  157.1098 H       1  UNL1        0.1562
     28 C         139.6469  139.5788  163.2278 C.ar    1  UNL1        0.0530
     29 C         140.1593  140.8578  163.8207 C.ar    1  UNL1        0.0016
     30 C         139.9441  141.1487  165.2764 C.ar    1  UNL1       -0.0060
     31 C         139.2164  140.1607  166.1392 C.ar    1  UNL1        0.0009
     32 C         138.7040  138.8817  165.5462 C.ar    1  UNL1        0.0713
     33 C         138.9193  138.5908  164.0905 C.ar    1  UNL1        0.0083
     34 C         137.9764  137.8936  166.4089 C.3     1  UNL1        0.4186
     35 F         137.2488  136.9056  167.2716 F       1  UNL1       -0.1659
     36 F         138.4580  136.7748  165.5336 F       1  UNL1       -0.1659
     37 F         137.4949  139.0125  167.2842 F       1  UNL1       -0.1659
     38 C         140.4565  142.4277  165.8693 C.3     1  UNL1        0.0993
     39 N         141.3431  143.3273  165.0602 N.3     1  UNL1       -0.2638
     40 C         142.8226  143.0834  165.0200 C.3     1  UNL1        0.1049
     41 C         143.7093  143.9829  164.2108 C.3     1  UNL1        0.1595
     42 O         143.1164  145.1263  163.4419 O.3     1  UNL1       -0.3508
     43 C         141.6369  145.3701  163.4822 C.3     1  UNL1        0.1606
     44 C         140.7503  144.4706  164.2913 C.3     1  UNL1        0.1172
     45 C         139.2708  144.7145  164.3315 C.3     1  UNL1        0.1556
     46 O         138.6538  145.3882  165.5212 O.3     1  UNL1       -0.3805
     47 H         138.7454  144.8171  166.2998 H       1  UNL1        0.2105
@<TRIPOS>BOND
     1    16    17    2
     2    17    18    1
     3    18    19    1
     4    19    20    1
     5    20    21   ar
     6    21    15    1
     7    15     5    1
     8     5     6   ar
     9     6     7   ar
    10     7     8   ar
    11     8     9   ar
    12     9    10   ar
    13     9    11    1
    14    11    12    1
    15    12     1    1
    16     1     2   am
    17     2     3    2
    18     2    28    1
    19    28    29   ar
    20    29    30   ar
    21    30    38    1
    22    38    39    1
    23    39    40    1
    24    40    41    1
    25    41    42    1
    26    42    43    1
    27    43    44    1
    28    44    45    1
    29    45    46    1
    30    30    31   ar
    31    31    32   ar
    32    32    34    1
    33    34    35    1
    34    34    36    1
    35    34    37    1
    36    32    33   ar
    37    12    13    1
    38    13    14    1
    39    21    22   ar
    40    22    23   ar
    41    23    24   ar
    42    24    25   ar
    43    25    26    1
    44    26    17   am
    45    25    20   ar
    46    10     5   ar
    47    33    28   ar
    48    14     8    1
    49    44    39    1
    50     1     4    1
    51    46    47    1
    52    26    27    1
@<TRIPOS>MOLECULE
*****
 47 52 0 0 0
SMALL
GASTEIGER

@<TRIPOS>ATOM
      1 N         141.0583  139.7688  161.7559 N.am    1  UNL1       -0.3021
      2 C         140.2334  138.8269  162.5819 C.2     1  UNL1        0.2458
      3 O         139.5816  137.6390  161.9384 O.2     1  UNL1       -0.2701
      4 H         141.4861  140.5485  162.1782 H       1  UNL1        0.1497
      5 C         143.0502  136.5965  156.3969 C.ar    1  UNL1        0.1450
      6 C         142.4867  137.5678  155.4025 C.ar    1  UNL1        0.0371
      7 C         141.7502  138.7851  155.8776 C.ar    1  UNL1       -0.0014
      8 C         141.5772  139.0311  157.3471 C.ar    1  UNL1       -0.0258
      9 C         142.1407  138.0597  158.3416 C.ar    1  UNL1       -0.0215
     10 C         142.8772  136.8424  157.8665 C.ar    1  UNL1        0.0330
     11 C         141.9677  138.3056  159.8112 C.3     1  UNL1        0.0457
     12 C         141.2312  139.5229  160.2863 C.3     1  UNL1        0.0765
     13 C         140.6677  140.4943  159.2919 C.3     1  UNL1        0.0246
     14 C         140.8407  140.2484  157.8223 C.3     1  UNL1        0.0277
     15 O         143.7867  135.3792  155.9218 O.3     1  UNL1       -0.4537
     16 O         145.0858  129.2436  158.7355 O.2     1  UNL1       -0.2747
     17 C         144.5812  130.4500  158.0006 C.2     1  UNL1        0.2275
     18 C         145.3005  131.7602  158.1266 C.3     1  UNL1        0.0903
     19 C         144.7959  132.9665  157.3916 C.3     1  UNL1        0.0419
     20 C         143.5720  132.8626  156.5307 C.ar    1  UNL1        0.0445
     21 C         143.0674  134.0690  155.7958 C.ar    1  UNL1        0.1455
     22 C         141.8435  133.9651  154.9349 C.ar    1  UNL1        0.0579
     23 C         141.1241  132.6548  154.8089 C.ar    1  UNL1        0.1034
     24 N         141.6287  131.4485  155.5438 N.ar    1  UNL1       -0.2291
     25 C         142.8527  131.5524  156.4048 C.ar    1  UNL1        0.1330
     26 N         143.3573  130.3461  157.1397 N.am    1  UNL1       -0.2695
     27 H         142.8852  129.4861  157.0570 H       1  UNL1        0.1562
     28 C         140.0604  139.0727  164.0515 C.ar    1  UNL1        0.0530
     29 C         141.0185  139.9679  164.7800 C.ar    1  UNL1        0.0016
     30 C         140.8455  140.2137  166.2496 C.ar    1  UNL1       -0.0060
     31 C         139.7144  139.5644  166.9906 C.ar    1  UNL1        0.0009
     32 C         138.7563  138.6693  166.2621 C.ar    1  UNL1        0.0713
     33 C         138.9294  138.4234  164.7924 C.ar    1  UNL1        0.0083
     34 C         137.6253  138.0200  167.0030 C.3     1  UNL1        0.4186
     35 F         136.4942  137.3707  167.7440 F       1  UNL1       -0.1659
     36 F         137.6940  136.8427  166.0762 F       1  UNL1       -0.1659
     37 F         137.5566  139.1974  167.9298 F       1  UNL1       -0.1659
     38 C         141.8036  141.1089  166.9781 C.3     1  UNL1        0.0993
     39 N         141.4506  141.6377  168.3367 N.3     1  UNL1       -0.2638
     40 C         140.6758  142.9155  168.4660 C.3     1  UNL1        0.1049
     41 C         140.3227  143.4444  169.8246 C.3     1  UNL1        0.1595
     42 O         140.7447  142.6954  171.0539 O.3     1  UNL1       -0.3508
     43 C         141.5196  141.4175  170.9245 C.3     1  UNL1        0.1606
     44 C         141.8726  140.8887  169.5659 C.3     1  UNL1        0.1172
     45 C         142.6475  139.6109  169.4366 C.3     1  UNL1        0.1556
     46 O         142.4097  138.4886  170.4030 O.3     1  UNL1       -0.3805
     47 H         142.6921  138.7605  171.2902 H       1  UNL1        0.2105
@<TRIPOS>BOND
     1    16    17    2
     2    17    18    1
     3    18    19    1
     4    19    20    1
     5    20    21   ar
     6    21    15    1
     7    15     5    1
     8     5     6   ar
     9     6     7   ar
    10     7     8   ar
    11     8     9   ar
    12     9    10   ar
    13     9    11    1
    14    11    12    1
    15    12     1    1
    16     1     2   am
    17     2     3    2
    18     2    28    1
    19    28    29   ar
    20    29    30   ar
    21    30    38    1
    22    38    39    1
    23    39    40    1
    24    40    41    1
    25    41    42    1
    26    42    43    1
    27    43    44    1
    28    44    45    1
    29    45    46    1
    30    30    31   ar
    31    31    32   ar
    32    32    34    1
    33    34    35    1
    34    34    36    1
    35    34    37    1
    36    32    33   ar
    37    12    13    1
    38    13    14    1
    39    21    22   ar
    40    22    23   ar
    41    23    24   ar
    42    24    25   ar
    43    25    26    1
    44    26    17   am
    45    25    20   ar
    46    10     5   ar
    47    33    28   ar
    48    14     8    1
    49    44    39    1
    50     1     4    1
    51    46    47    1
    52    26    27    1
@<TRIPOS>MOLECULE
*****
 47 52 0 0 0
SMALL
GASTEIGER

@<TRIPOS>ATOM
      1 N         141.2036  139.9936  161.8258 N.am    1  UNL1       -0.3021
      2 C         141.7111  139.2392  163.0188 C.2     1  UNL1        0.2458
      3 O         142.8042  138.2250  162.8555 O.2     1  UNL1       -0.2701
      4 H         140.4862  140.6593  161.9330 H       1  UNL1        0.1497
      5 C         142.4716  136.5886  156.3900 C.ar    1  UNL1        0.1450
      6 C         143.3014  137.6415  155.7170 C.ar    1  UNL1        0.0371
      7 C         143.5457  138.9543  156.4004 C.ar    1  UNL1       -0.0014
      8 C         142.9602  139.2141  157.7567 C.ar    1  UNL1       -0.0258
      9 C         142.1304  138.1612  158.4297 C.ar    1  UNL1       -0.0215
     10 C         141.8861  136.8485  157.7463 C.ar    1  UNL1        0.0330
     11 C         141.5449  138.4211  159.7860 C.3     1  UNL1        0.0457
     12 C         141.7892  139.7338  160.4694 C.3     1  UNL1        0.0765
     13 C         142.6189  140.7867  159.7965 C.3     1  UNL1        0.0246
     14 C         143.2045  140.5269  158.4401 C.3     1  UNL1        0.0277
     15 O         142.2274  135.2759  155.7066 O.3     1  UNL1       -0.4537
     16 O         140.6058  128.6756  154.6788 O.2     1  UNL1       -0.2747
     17 C         141.1621  130.0114  155.0739 C.2     1  UNL1        0.2275
     18 C         140.5585  131.2684  154.5212 C.3     1  UNL1        0.0903
     19 C         141.1148  132.6042  154.9163 C.3     1  UNL1        0.0419
     20 C         142.2747  132.6830  155.8641 C.ar    1  UNL1        0.0445
     21 C         142.8310  134.0189  156.2592 C.ar    1  UNL1        0.1455
     22 C         143.9909  134.0977  157.2070 C.ar    1  UNL1        0.0579
     23 C         144.5946  132.8406  157.7598 C.ar    1  UNL1        0.1034
     24 N         144.0383  131.5048  157.3646 N.ar    1  UNL1       -0.2291
     25 C         142.8783  131.4260  156.4168 C.ar    1  UNL1        0.1330
     26 N         142.3220  130.0902  156.0217 N.am    1  UNL1       -0.2695
     27 H         142.7182  129.2652  156.3844 H       1  UNL1        0.1562
     28 C         141.1257  139.4990  164.3752 C.ar    1  UNL1        0.0530
     29 C         141.7562  140.5134  165.2825 C.ar    1  UNL1        0.0016
     30 C         141.1708  140.7732  166.6388 C.ar    1  UNL1       -0.0060
     31 C         139.9546  140.0185  167.0879 C.ar    1  UNL1        0.0009
     32 C         139.3241  139.0041  166.1806 C.ar    1  UNL1        0.0713
     33 C         139.9096  138.7443  164.8242 C.ar    1  UNL1        0.0083
     34 C         138.1080  138.2494  166.6296 C.3     1  UNL1        0.4186
     35 F         136.8920  137.4947  167.0785 F       1  UNL1       -0.1659
     36 F         138.2681  137.3048  165.4755 F       1  UNL1       -0.1659
     37 F         137.9479  139.1940  167.7837 F       1  UNL1       -0.1659
     38 C         141.8013  141.7877  167.5462 C.3     1  UNL1        0.0993
     39 N         141.3249  141.9267  168.9617 N.3     1  UNL1       -0.2638
     40 C         140.2980  142.9634  169.3089 C.3     1  UNL1        0.1049
     41 C         139.8215  143.1025  170.7244 C.3     1  UNL1        0.1595
     42 O         140.3720  142.2049  171.7927 O.3     1  UNL1       -0.3508
     43 C         141.3991  141.1682  171.4454 C.3     1  UNL1        0.1606
     44 C         141.8755  141.0291  170.0299 C.3     1  UNL1        0.1172
     45 C         142.9025  139.9925  169.6827 C.3     1  UNL1        0.1556
     46 O         142.8916  138.6635  170.3783 O.3     1  UNL1       -0.3805
     47 H         143.0983  138.7886  171.3177 H       1  UNL1        0.2105
@<TRIPOS>BOND
     1    16    17    2
     2    17    18    1
     3    18    19    1
     4    19    20    1
     5    20    21   ar
     6    21    15    1
     7    15     5    1
     8     5     6   ar
     9     6     7   ar
    10     7     8   ar
    11     8     9   ar
    12     9    10   ar
    13     9    11    1
    14    11    12    1
    15    12     1    1
    16     1     2   am
    17     2     3    2
    18     2    28    1
    19    28    29   ar
    20    29    30   ar
    21    30    38    1
    22    38    39    1
    23    39    40    1
    24    40    41    1
    25    41    42    1
    26    42    43    1
    27    43    44    1
    28    44    45    1
    29    45    46    1
    30    30    31   ar
    31    31    32   ar
    32    32    34    1
    33    34    35    1
    34    34    36    1
    35    34    37    1
    36    32    33   ar
    37    12    13    1
    38    13    14    1
    39    21    22   ar
    40    22    23   ar
    41    23    24   ar
    42    24    25   ar
    43    25    26    1
    44    26    17   am
    45    25    20   ar
    46    10     5   ar
    47    33    28   ar
    48    14     8    1
    49    44    39    1
    50     1     4    1
    51    46    47    1
    52    26    27    1
@<TRIPOS>MOLECULE
*****
 47 52 0 0 0
SMALL
GASTEIGER

@<TRIPOS>ATOM
      1 N         142.5246  141.3225  161.4680 N.am    1  UNL1       -0.3021
      2 C         143.0392  140.4848  162.6009 C.2     1  UNL1        0.2458
      3 O         144.3205  139.7203  162.4467 O.2     1  UNL1       -0.2701
      4 H         141.6837  141.8243  161.5692 H       1  UNL1        0.1497
      5 C         144.2823  139.5585  155.4224 C.ar    1  UNL1        0.1450
      6 C         145.3204  140.6234  155.2274 C.ar    1  UNL1        0.0371
      7 C         145.5919  141.6152  156.3195 C.ar    1  UNL1       -0.0014
      8 C         144.8251  141.5420  157.6066 C.ar    1  UNL1       -0.0258
      9 C         143.7868  140.4771  157.8016 C.ar    1  UNL1       -0.0215
     10 C         143.5154  139.4853  156.7095 C.ar    1  UNL1        0.0330
     11 C         143.0201  140.4039  159.0887 C.3     1  UNL1        0.0457
     12 C         143.2915  141.3957  160.1808 C.3     1  UNL1        0.0765
     13 C         144.3297  142.4606  159.9859 C.3     1  UNL1        0.0246
     14 C         145.0965  142.5338  158.6987 C.3     1  UNL1        0.0277
     15 O         144.0109  138.5667  154.3302 O.3     1  UNL1       -0.4537
     16 O         142.4806  132.3811  156.9083 O.2     1  UNL1       -0.2747
     17 C         142.5423  133.7334  156.2622 C.2     1  UNL1        0.2275
     18 C         143.8257  134.5097  156.2684 C.3     1  UNL1        0.0903
     19 C         143.8874  135.8620  155.6223 C.3     1  UNL1        0.0419
     20 C         142.6657  136.4381  154.9701 C.ar    1  UNL1        0.0445
     21 C         142.7274  137.7904  154.3241 C.ar    1  UNL1        0.1455
     22 C         141.5057  138.3665  153.6718 C.ar    1  UNL1        0.0579
     23 C         140.2221  137.5902  153.6656 C.ar    1  UNL1        0.1034
     24 N         140.1604  136.2379  154.3116 N.ar    1  UNL1       -0.2291
     25 C         141.3822  135.6618  154.9639 C.ar    1  UNL1        0.1330
     26 N         141.3205  134.3095  155.6100 N.am    1  UNL1       -0.2695
     27 H         140.4781  133.8000  155.6059 H       1  UNL1        0.1562
     28 C         142.2724  140.4116  163.8880 C.ar    1  UNL1        0.0530
     29 C         142.5988  141.3521  165.0100 C.ar    1  UNL1        0.0016
     30 C         141.8320  141.2789  166.2971 C.ar    1  UNL1       -0.0060
     31 C         140.7388  140.2651  166.4623 C.ar    1  UNL1        0.0009
     32 C         140.4124  139.3246  165.3403 C.ar    1  UNL1        0.0713
     33 C         141.1793  139.3978  164.0531 C.ar    1  UNL1        0.0083
     34 C         139.3193  138.3108  165.5054 C.3     1  UNL1        0.4186
     35 F         138.2262  137.2970  165.6705 F       1  UNL1       -0.1659
     36 F         140.1334  137.3087  164.7419 F       1  UNL1       -0.1659
     37 F         138.5052  139.3129  166.2689 F       1  UNL1       -0.1659
     38 C         142.1584  142.2194  167.4191 C.3     1  UNL1        0.0993
     39 N         142.0678  141.7507  168.8411 N.3     1  UNL1       -0.2638
     40 C         142.8878  140.5811  169.2988 C.3     1  UNL1        0.1049
     41 C         142.7972  140.1122  170.7209 C.3     1  UNL1        0.1595
     42 O         141.8867  140.8131  171.6851 O.3     1  UNL1       -0.3508
     43 C         141.0667  141.9828  171.2272 C.3     1  UNL1        0.1606
     44 C         141.1572  142.4515  169.8053 C.3     1  UNL1        0.1172
     45 C         140.3373  143.6211  169.3475 C.3     1  UNL1        0.1556
     46 O         139.9628  144.7008  170.3192 O.3     1  UNL1       -0.3805
     47 H         139.3659  144.3375  170.9919 H       1  UNL1        0.2105
@<TRIPOS>BOND
     1    16    17    2
     2    17    18    1
     3    18    19    1
     4    19    20    1
     5    20    21   ar
     6    21    15    1
     7    15     5    1
     8     5     6   ar
     9     6     7   ar
    10     7     8   ar
    11     8     9   ar
    12     9    10   ar
    13     9    11    1
    14    11    12    1
    15    12     1    1
    16     1     2   am
    17     2     3    2
    18     2    28    1
    19    28    29   ar
    20    29    30   ar
    21    30    38    1
    22    38    39    1
    23    39    40    1
    24    40    41    1
    25    41    42    1
    26    42    43    1
    27    43    44    1
    28    44    45    1
    29    45    46    1
    30    30    31   ar
    31    31    32   ar
    32    32    34    1
    33    34    35    1
    34    34    36    1
    35    34    37    1
    36    32    33   ar
    37    12    13    1
    38    13    14    1
    39    21    22   ar
    40    22    23   ar
    41    23    24   ar
    42    24    25   ar
    43    25    26    1
    44    26    17   am
    45    25    20   ar
    46    10     5   ar
    47    33    28   ar
    48    14     8    1
    49    44    39    1
    50     1     4    1
    51    46    47    1
    52    26    27    1
@<TRIPOS>MOLECULE
*****
 47 52 0 0 0
SMALL
GASTEIGER

@<TRIPOS>ATOM
      1 N         141.2060  140.6385  161.1497 N.am    1  UNL1       -0.3021
      2 C         141.8251  140.3125  162.4765 C.2     1  UNL1        0.2458
      3 O         143.0889  139.5067  162.5366 O.2     1  UNL1       -0.2701
      4 H         140.3765  141.1674  161.1102 H       1  UNL1        0.1497
      5 C         142.4463  136.4978  156.2439 C.ar    1  UNL1        0.1450
      6 C         143.4375  137.3685  155.5303 C.ar    1  UNL1        0.0371
      7 C         143.7842  138.7191  156.0833 C.ar    1  UNL1       -0.0014
      8 C         143.1397  139.1989  157.3498 C.ar    1  UNL1       -0.0258
      9 C         142.1484  138.3282  158.0635 C.ar    1  UNL1       -0.0215
     10 C         141.8017  136.9777  157.5105 C.ar    1  UNL1        0.0330
     11 C         141.5038  138.8081  159.3301 C.3     1  UNL1        0.0457
     12 C         141.8506  140.1587  159.8831 C.3     1  UNL1        0.0765
     13 C         142.8418  141.0294  159.1695 C.3     1  UNL1        0.0246
     14 C         143.4864  140.5495  157.9028 C.3     1  UNL1        0.0277
     15 O         142.0995  135.1473  155.6909 O.3     1  UNL1       -0.4537
     16 O         140.6938  128.4847  154.7504 O.2     1  UNL1       -0.2747
     17 C         141.2080  129.8430  155.1257 C.2     1  UNL1        0.2275
     18 C         140.5569  131.0726  154.5652 C.3     1  UNL1        0.0903
     19 C         141.0711  132.4308  154.9404 C.3     1  UNL1        0.0419
     20 C         142.2364  132.5594  155.8761 C.ar    1  UNL1        0.0445
     21 C         142.7506  133.9177  156.2514 C.ar    1  UNL1        0.1455
     22 C         143.9158  134.0463  157.1871 C.ar    1  UNL1        0.0579
     23 C         144.5670  132.8167  157.7476 C.ar    1  UNL1        0.1034
     24 N         144.0528  131.4584  157.3724 N.ar    1  UNL1       -0.2291
     25 C         142.8874  131.3298  156.4366 C.ar    1  UNL1        0.1330
     26 N         142.3732  129.9716  156.0614 N.am    1  UNL1       -0.2695
     27 H         142.8006  129.1646  156.4292 H       1  UNL1        0.1562
     28 C         141.1806  140.7923  163.7431 C.ar    1  UNL1        0.0530
     29 C         141.5847  140.2008  165.0610 C.ar    1  UNL1        0.0016
     30 C         140.9402  140.6806  166.3276 C.ar    1  UNL1       -0.0060
     31 C         139.8915  141.7520  166.2763 C.ar    1  UNL1        0.0009
     32 C         139.4874  142.3434  164.9584 C.ar    1  UNL1        0.0713
     33 C         140.1320  141.8636  163.6918 C.ar    1  UNL1        0.0083
     34 C         138.4387  143.4147  164.9071 C.3     1  UNL1        0.4186
     35 F         137.3901  144.4860  164.8558 F       1  UNL1       -0.1659
     36 F         137.4748  142.4419  164.2953 F       1  UNL1       -0.1659
     37 F         139.4027  144.3876  165.5190 F       1  UNL1       -0.1659
     38 C         141.3443  140.0892  167.6455 C.3     1  UNL1        0.0993
     39 N         141.6117  140.9844  168.8189 N.3     1  UNL1       -0.2638
     40 C         142.9079  141.7336  168.9107 C.3     1  UNL1        0.1049
     41 C         143.1753  142.6289  170.0842 C.3     1  UNL1        0.1595
     42 O         142.1464  142.7750  171.1659 O.3     1  UNL1       -0.3508
     43 C         140.8501  142.0257  171.0740 C.3     1  UNL1        0.1606
     44 C         140.5828  141.1305  169.9006 C.3     1  UNL1        0.1172
     45 C         139.2865  140.3813  169.8088 C.3     1  UNL1        0.1556
     46 O         138.8379  139.5162  170.9491 O.3     1  UNL1       -0.3805
     47 H         139.4498  138.7702  171.0491 H       1  UNL1        0.2105
@<TRIPOS>BOND
     1    16    17    2
     2    17    18    1
     3    18    19    1
     4    19    20    1
     5    20    21   ar
     6    21    15    1
     7    15     5    1
     8     5     6   ar
     9     6     7   ar
    10     7     8   ar
    11     8     9   ar
    12     9    10   ar
    13     9    11    1
    14    11    12    1
    15    12     1    1
    16     1     2   am
    17     2     3    2
    18     2    28    1
    19    28    29   ar
    20    29    30   ar
    21    30    38    1
    22    38    39    1
    23    39    40    1
    24    40    41    1
    25    41    42    1
    26    42    43    1
    27    43    44    1
    28    44    45    1
    29    45    46    1
    30    30    31   ar
    31    31    32   ar
    32    32    34    1
    33    34    35    1
    34    34    36    1
    35    34    37    1
    36    32    33   ar
    37    12    13    1
    38    13    14    1
    39    21    22   ar
    40    22    23   ar
    41    23    24   ar
    42    24    25   ar
    43    25    26    1
    44    26    17   am
    45    25    20   ar
    46    10     5   ar
    47    33    28   ar
    48    14     8    1
    49    44    39    1
    50     1     4    1
    51    46    47    1
    52    26    27    1
@<TRIPOS>MOLECULE
*****
 47 52 0 0 0
SMALL
GASTEIGER

@<TRIPOS>ATOM
      1 N         142.2562  138.8568  160.0295 N.am    1  UNL1       -0.3021
      2 C         141.3693  138.6505  161.2215 C.2     1  UNL1        0.2458
      3 O         140.1033  137.8573  161.0861 O.2     1  UNL1       -0.2701
      4 H         143.0870  139.3774  160.1183 H       1  UNL1        0.1497
      5 C         142.5444  134.6642  155.0205 C.ar    1  UNL1        0.1450
      6 C         141.4527  135.2931  154.2067 C.ar    1  UNL1        0.0371
      7 C         140.7400  136.5090  154.7201 C.ar    1  UNL1       -0.0014
      8 C         141.1190  137.0960  156.0474 C.ar    1  UNL1       -0.0258
      9 C         142.2108  136.4670  156.8614 C.ar    1  UNL1       -0.0215
     10 C         142.9235  135.2511  156.3479 C.ar    1  UNL1        0.0330
     11 C         142.5898  137.0539  158.1887 C.3     1  UNL1        0.0457
     12 C         141.8771  138.2698  158.7021 C.3     1  UNL1        0.0765
     13 C         140.7853  138.8988  157.8882 C.3     1  UNL1        0.0246
     14 C         140.4063  138.3119  156.5608 C.3     1  UNL1        0.0277
     15 O         143.2571  133.4483  154.5071 O.3     1  UNL1       -0.4537
     16 O         144.8655  128.8458  159.3528 O.2     1  UNL1       -0.2747
     17 C         144.3253  129.6548  158.2110 C.2     1  UNL1        0.2275
     18 C         144.8776  131.0213  157.9326 C.3     1  UNL1        0.0903
     19 C         144.3375  131.8303  156.7908 C.3     1  UNL1        0.0419
     20 C         143.2450  131.2727  155.9273 C.ar    1  UNL1        0.0445
     21 C         142.7048  132.0817  154.7855 C.ar    1  UNL1        0.1455
     22 C         141.6124  131.5242  153.9220 C.ar    1  UNL1        0.0579
     23 C         141.0600  130.1576  154.2004 C.ar    1  UNL1        0.1034
     24 N         141.6002  129.3486  155.3422 N.ar    1  UNL1       -0.2291
     25 C         142.6927  129.9062  156.2057 C.ar    1  UNL1        0.1330
     26 N         143.2329  129.0972  157.3475 N.am    1  UNL1       -0.2695
     27 H         142.8704  128.2003  157.5302 H       1  UNL1        0.1562
     28 C         141.7483  139.2374  162.5488 C.ar    1  UNL1        0.0530
     29 C         140.9733  140.3945  163.1061 C.ar    1  UNL1        0.0016
     30 C         141.3523  140.9814  164.4334 C.ar    1  UNL1       -0.0060
     31 C         142.5064  140.4112  165.2036 C.ar    1  UNL1        0.0009
     32 C         143.2814  139.2541  164.6463 C.ar    1  UNL1        0.0713
     33 C         142.9023  138.6672  163.3189 C.ar    1  UNL1        0.0083
     34 C         144.4354  138.6839  165.4164 C.3     1  UNL1        0.4186
     35 F         145.5894  138.1137  166.1865 F       1  UNL1       -0.1659
     36 F         143.4807  138.1025  166.4166 F       1  UNL1       -0.1659
     37 F         145.3901  139.2652  164.4162 F       1  UNL1       -0.1659
     38 C         140.5773  142.1385  164.9907 C.3     1  UNL1        0.0993
     39 N         139.9899  143.1628  164.0657 N.3     1  UNL1       -0.2638
     40 C         140.8289  144.3107  163.5879 C.3     1  UNL1        0.1049
     41 C         140.2415  145.3351  162.6628 C.3     1  UNL1        0.1595
     42 O         138.8151  145.2115  162.2156 O.3     1  UNL1       -0.3508
     43 C         137.9761  144.0635  162.6934 C.3     1  UNL1        0.1606
     44 C         138.5635  143.0392  163.6184 C.3     1  UNL1        0.1172
     45 C         137.7245  141.8912  164.0961 C.3     1  UNL1        0.1556
     46 O         136.6269  141.3519  163.2275 O.3     1  UNL1       -0.3805
     47 H         135.9365  142.0253  163.1235 H       1  UNL1        0.2105
@<TRIPOS>BOND
     1    16    17    2
     2    17    18    1
     3    18    19    1
     4    19    20    1
     5    20    21   ar
     6    21    15    1
     7    15     5    1
     8     5     6   ar
     9     6     7   ar
    10     7     8   ar
    11     8     9   ar
    12     9    10   ar
    13     9    11    1
    14    11    12    1
    15    12     1    1
    16     1     2   am
    17     2     3    2
    18     2    28    1
    19    28    29   ar
    20    29    30   ar
    21    30    38    1
    22    38    39    1
    23    39    40    1
    24    40    41    1
    25    41    42    1
    26    42    43    1
    27    43    44    1
    28    44    45    1
    29    45    46    1
    30    30    31   ar
    31    31    32   ar
    32    32    34    1
    33    34    35    1
    34    34    36    1
    35    34    37    1
    36    32    33   ar
    37    12    13    1
    38    13    14    1
    39    21    22   ar
    40    22    23   ar
    41    23    24   ar
    42    24    25   ar
    43    25    26    1
    44    26    17   am
    45    25    20   ar
    46    10     5   ar
    47    33    28   ar
    48    14     8    1
    49    44    39    1
    50     1     4    1
    51    46    47    1
    52    26    27    1
@<TRIPOS>MOLECULE
*****
 47 52 0 0 0
SMALL
GASTEIGER

@<TRIPOS>ATOM
      1 N         142.0553  139.7659  158.4846 N.am    1  UNL1       -0.3021
      2 C         142.2778  138.2825  158.4858 C.2     1  UNL1        0.2458
      3 O         142.8782  137.6151  159.6875 O.2     1  UNL1       -0.2701
      4 H         141.6613  140.2040  157.6958 H       1  UNL1        0.1497
      5 C         141.2052  142.6387  164.2962 C.ar    1  UNL1        0.1450
      6 C         142.5750  143.2423  164.3918 C.ar    1  UNL1        0.0371
      7 C         143.5669  143.0299  163.2869 C.ar    1  UNL1       -0.0014
      8 C         143.1891  142.2139  162.0863 C.ar    1  UNL1       -0.0258
      9 C         141.8192  141.6103  161.9907 C.ar    1  UNL1       -0.0215
     10 C         140.8272  141.8227  163.0956 C.ar    1  UNL1        0.0330
     11 C         141.4413  140.7943  160.7901 C.3     1  UNL1        0.0457
     12 C         142.4333  140.5819  159.6852 C.3     1  UNL1        0.0765
     13 C         143.8031  141.1855  159.7808 C.3     1  UNL1        0.0246
     14 C         144.1810  142.0016  160.9814 C.3     1  UNL1        0.0277
     15 O         140.2132  142.8510  165.4012 O.3     1  UNL1       -0.4537
     16 O         140.6429  142.1808  172.2288 O.2     1  UNL1       -0.2747
     17 C         140.4417  142.0635  170.7470 C.2     1  UNL1        0.2275
     18 C         140.8168  143.2030  169.8466 C.3     1  UNL1        0.0903
     19 C         140.6156  143.0857  168.3648 C.3     1  UNL1        0.0419
     20 C         140.0392  141.8289  167.7833 C.ar    1  UNL1        0.0445
     21 C         139.8380  141.7115  166.3015 C.ar    1  UNL1        0.1455
     22 C         139.2617  140.4547  165.7201 C.ar    1  UNL1        0.0579
     23 C         138.8865  139.3151  166.6205 C.ar    1  UNL1        0.1034
     24 N         139.0877  139.4324  168.1023 N.ar    1  UNL1       -0.2291
     25 C         139.6641  140.6893  168.6837 C.ar    1  UNL1        0.1330
     26 N         139.8653  140.8067  170.1655 N.am    1  UNL1       -0.2695
     27 H         139.6191  140.0587  170.7565 H       1  UNL1        0.1562
     28 C         141.8999  137.4665  157.2852 C.ar    1  UNL1        0.0530
     29 C         142.8007  136.3635  156.8143 C.ar    1  UNL1        0.0016
     30 C         142.4228  135.5474  155.6138 C.ar    1  UNL1       -0.0060
     31 C         141.1440  135.8345  154.8842 C.ar    1  UNL1        0.0009
     32 C         140.2431  136.9375  155.3551 C.ar    1  UNL1        0.0713
     33 C         140.6211  137.7535  156.5557 C.ar    1  UNL1        0.0083
     34 C         138.9644  137.2245  154.6255 C.3     1  UNL1        0.4186
     35 F         137.6856  137.5116  153.8959 F       1  UNL1       -0.1659
     36 F         139.4480  136.4146  153.4593 F       1  UNL1       -0.1659
     37 F         138.4808  138.0345  155.7917 F       1  UNL1       -0.1659
     38 C         143.3237  134.4444  155.1429 C.3     1  UNL1        0.0993
     39 N         142.9670  133.0143  155.4214 N.3     1  UNL1       -0.2638
     40 C         142.0835  132.2629  154.4703 C.3     1  UNL1        0.1049
     41 C         141.7268  130.8327  154.7488 C.3     1  UNL1        0.1595
     42 O         142.2536  130.1541  155.9783 O.3     1  UNL1       -0.3508
     43 C         143.1372  130.9056  156.9295 C.3     1  UNL1        0.1606
     44 C         143.4939  132.3357  156.6510 C.3     1  UNL1        0.1172
     45 C         144.3774  133.0871  157.6021 C.3     1  UNL1        0.1556
     46 O         143.7716  133.8703  158.7289 O.3     1  UNL1       -0.3805
     47 H         143.2558  134.6086  158.3688 H       1  UNL1        0.2105
@<TRIPOS>BOND
     1    16    17    2
     2    17    18    1
     3    18    19    1
     4    19    20    1
     5    20    21   ar
     6    21    15    1
     7    15     5    1
     8     5     6   ar
     9     6     7   ar
    10     7     8   ar
    11     8     9   ar
    12     9    10   ar
    13     9    11    1
    14    11    12    1
    15    12     1    1
    16     1     2   am
    17     2     3    2
    18     2    28    1
    19    28    29   ar
    20    29    30   ar
    21    30    38    1
    22    38    39    1
    23    39    40    1
    24    40    41    1
    25    41    42    1
    26    42    43    1
    27    43    44    1
    28    44    45    1
    29    45    46    1
    30    30    31   ar
    31    31    32   ar
    32    32    34    1
    33    34    35    1
    34    34    36    1
    35    34    37    1
    36    32    33   ar
    37    12    13    1
    38    13    14    1
    39    21    22   ar
    40    22    23   ar
    41    23    24   ar
    42    24    25   ar
    43    25    26    1
    44    26    17   am
    45    25    20   ar
    46    10     5   ar
    47    33    28   ar
    48    14     8    1
    49    44    39    1
    50     1     4    1
    51    46    47    1
    52    26    27    1
@<TRIPOS>MOLECULE
*****
 47 52 0 0 0
SMALL
GASTEIGER

@<TRIPOS>ATOM
      1 N         141.5954  140.4466  161.0384 N.am    1  UNL1       -0.3021
      2 C         141.2429  139.9561  162.4114 C.2     1  UNL1        0.2458
      3 O         140.4345  138.7032  162.5757 O.2     1  UNL1       -0.2701
      4 H         142.1260  141.2689  160.9306 H       1  UNL1        0.1497
      5 C         142.0195  136.0934  156.1784 C.ar    1  UNL1        0.1450
      6 C         140.6681  136.3640  155.5866 C.ar    1  UNL1        0.0371
      7 C         139.7723  137.3970  156.2035 C.ar    1  UNL1       -0.0014
      8 C         140.2281  138.1594  157.4122 C.ar    1  UNL1       -0.0258
      9 C         141.5796  137.8888  158.0040 C.ar    1  UNL1       -0.0215
     10 C         142.4753  136.8558  157.3871 C.ar    1  UNL1        0.0330
     11 C         142.0353  138.6512  159.2128 C.3     1  UNL1        0.0457
     12 C         141.1396  139.6842  159.8297 C.3     1  UNL1        0.0765
     13 C         139.7882  139.9548  159.2378 C.3     1  UNL1        0.0246
     14 C         139.3324  139.1924  158.0291 C.3     1  UNL1        0.0277
     15 O         142.9152  135.0604  155.5615 O.3     1  UNL1       -0.4537
     16 O         145.3118  129.4737  158.7701 O.2     1  UNL1       -0.2747
     17 C         144.6028  130.5122  157.9523 C.2     1  UNL1        0.2275
     18 C         145.0423  131.9449  158.0149 C.3     1  UNL1        0.0903
     19 C         144.3333  132.9834  157.1971 C.3     1  UNL1        0.0419
     20 C         143.1847  132.5891  156.3166 C.ar    1  UNL1        0.0445
     21 C         142.4757  133.6276  155.4988 C.ar    1  UNL1        0.1455
     22 C         141.3271  133.2334  154.6183 C.ar    1  UNL1        0.0579
     23 C         140.8875  131.8005  154.5556 C.ar    1  UNL1        0.1034
     24 N         141.5965  130.7621  155.3734 N.ar    1  UNL1       -0.2291
     25 C         142.7452  131.1564  156.2540 C.ar    1  UNL1        0.1330
     26 N         143.4542  130.1179  157.0718 N.am    1  UNL1       -0.2695
     27 H         143.1657  129.1775  157.0306 H       1  UNL1        0.1562
     28 C         141.6986  140.7185  163.6202 C.ar    1  UNL1        0.0530
     29 C         141.5402  140.1215  164.9871 C.ar    1  UNL1        0.0016
     30 C         141.9959  140.8839  166.1958 C.ar    1  UNL1       -0.0060
     31 C         142.6102  142.2432  166.0377 C.ar    1  UNL1        0.0009
     32 C         142.7687  142.8401  164.6707 C.ar    1  UNL1        0.0713
     33 C         142.3129  142.0777  163.4619 C.ar    1  UNL1        0.0083
     34 C         143.3829  144.1994  164.5125 C.3     1  UNL1        0.4186
     35 F         143.9971  145.5587  164.3543 F       1  UNL1       -0.1659
     36 F         142.0903  144.7188  163.9564 F       1  UNL1       -0.1659
     37 F         144.6755  143.6800  165.0686 F       1  UNL1       -0.1659
     38 C         141.8375  140.2869  167.5628 C.3     1  UNL1        0.0993
     39 N         141.8727  141.1694  168.7752 N.3     1  UNL1       -0.2638
     40 C         143.1149  141.9434  169.1035 C.3     1  UNL1        0.1049
     41 C         143.1502  142.8259  170.3160 C.3     1  UNL1        0.1595
     42 O         141.9433  142.9343  171.2002 O.3     1  UNL1       -0.3508
     43 C         140.7011  142.1601  170.8718 C.3     1  UNL1        0.1606
     44 C         140.6658  141.2777  169.6594 C.3     1  UNL1        0.1172
     45 C         139.4237  140.5037  169.3310 C.3     1  UNL1        0.1556
     46 O         138.6506  139.8273  170.4241 O.3     1  UNL1       -0.3805
     47 H         139.1878  139.1168  170.8082 H       1  UNL1        0.2105
@<TRIPOS>BOND
     1    16    17    2
     2    17    18    1
     3    18    19    1
     4    19    20    1
     5    20    21   ar
     6    21    15    1
     7    15     5    1
     8     5     6   ar
     9     6     7   ar
    10     7     8   ar
    11     8     9   ar
    12     9    10   ar
    13     9    11    1
    14    11    12    1
    15    12     1    1
    16     1     2   am
    17     2     3    2
    18     2    28    1
    19    28    29   ar
    20    29    30   ar
    21    30    38    1
    22    38    39    1
    23    39    40    1
    24    40    41    1
    25    41    42    1
    26    42    43    1
    27    43    44    1
    28    44    45    1
    29    45    46    1
    30    30    31   ar
    31    31    32   ar
    32    32    34    1
    33    34    35    1
    34    34    36    1
    35    34    37    1
    36    32    33   ar
    37    12    13    1
    38    13    14    1
    39    21    22   ar
    40    22    23   ar
    41    23    24   ar
    42    24    25   ar
    43    25    26    1
    44    26    17   am
    45    25    20   ar
    46    10     5   ar
    47    33    28   ar
    48    14     8    1
    49    44    39    1
    50     1     4    1
    51    46    47    1
    52    26    27    1
