@<TRIPOS>MOLECULE
*****
 48 50 0 0 0
SMALL
GASTEIGER

@<TRIPOS>ATOM
      1 C         140.1119  141.6861  165.6671 C.3     1  UNL1        0.1152
      2 C         139.6805  140.2540  165.5515 C.ar    1  UNL1        0.0046
      3 C         138.5960  139.7233  166.4415 C.ar    1  UNL1        0.0275
      4 C         138.1646  138.2914  166.3259 C.ar    1  UNL1        0.1429
      5 F         137.0800  137.7606  167.2159 F       1  UNL1       -0.2041
      6 C         138.8177  137.3902  165.3203 C.ar    1  UNL1        0.0667
      7 C         139.9022  137.9209  164.4303 C.ar    1  UNL1        0.1461
      8 C         140.3336  139.3529  164.5459 C.ar    1  UNL1        0.0349
      9 O         140.5553  137.0197  163.4247 O.3     1  UNL1       -0.4263
     10 C         141.2095  137.6034  162.2076 C.3     1  UNL1        0.4723
     11 F         139.8786  137.6571  161.5180 F       1  UNL1       -0.1579
     12 F         142.5404  137.5497  162.8973 F       1  UNL1       -0.1579
     13 C         141.8637  138.1872  160.9906 C.3     1  UNL1        0.4202
     14 F         143.1891  138.8792  161.1106 F       1  UNL1       -0.1876
     15 F         141.1925  138.0789  159.6535 F       1  UNL1       -0.1876
     16 C         140.5160  141.4492  167.0921 C.ar    1  UNL1        0.0792
     17 C         140.0756  142.4009  168.1646 C.ar    1  UNL1        0.0175
     18 C         140.4797  142.1640  169.5897 C.ar    1  UNL1        0.0142
     19 C         141.3242  140.9755  169.9421 C.ar    1  UNL1        0.0768
     20 CL        141.7283  140.7386  171.3671 Cl      1  UNL1       -0.0806
     21 C         141.7646  140.0238  168.8695 C.ar    1  UNL1        0.1098
     22 N         141.3605  140.2607  167.4446 N.ar    1  UNL1       -0.2454
     23 C         138.3205  142.3971  163.9248 C.2     1  UNL1        0.2399
     24 O         137.6805  142.5722  164.3667 O.2     1  UNL1       -0.2736
     25 N         139.7078  141.9229  164.2421 N.am    1  UNL1       -0.2978
     26 H         140.3531  141.7671  163.5151 H       1  UNL1        0.1500
     27 N         137.2958  143.9821  162.2830 N.3     1  UNL1       -0.3126
     28 C         137.9164  142.6339  162.4999 C.3     1  UNL1        0.1699
     29 H         137.2676  144.4897  163.1673 H       1  UNL1        0.1193
     30 H         136.3470  143.8664  161.9271 H       1  UNL1        0.1193
     31 C         138.1498  141.5709  161.4675 C.3     1  UNL1        0.2849
     32 O         137.4878  140.5612  162.3576 O.3     1  UNL1       -0.3715
     33 H         137.2028  140.9916  163.1789 H       1  UNL1        0.2109
     34 C         138.3831  140.5080  160.4352 C.3     1  UNL1        0.4292
     35 F         138.6164  139.4450  159.4030 F       1  UNL1       -0.1672
     36 F         139.8459  140.7693  160.2311 F       1  UNL1       -0.1672
     37 F         136.9378  140.1141  160.5141 F       1  UNL1       -0.1672
     38 C         138.8118  142.5806  160.5774 C.3     1  UNL1        0.4292
     39 F         139.4737  143.5903  159.6873 F       1  UNL1       -0.1672
     40 F         139.9893  142.8610  161.4631 F       1  UNL1       -0.1672
     41 F         137.7955  142.5463  159.4746 F       1  UNL1       -0.1672
     42 C         140.5433  143.1180  165.7828 C.3     1  UNL1        0.0543
     43 C         141.6740  143.6310  164.9411 C.ar    1  UNL1       -0.0199
     44 C         141.4436  144.7640  163.9855 C.ar    1  UNL1       -0.0042
     45 C         142.5743  145.2769  163.1438 C.ar    1  UNL1       -0.0003
     46 C         143.9354  144.6569  163.2578 C.ar    1  UNL1       -0.0000
     47 C         144.1658  143.5239  164.2134 C.ar    1  UNL1       -0.0003
     48 C         143.0351  143.0110  165.0550 C.ar    1  UNL1       -0.0042
@<TRIPOS>BOND
     1    27    28    1
     2    28    23    1
     3    23    24    2
     4    23    25   am
     5    25     1    1
     6     1    42    1
     7    42    43    1
     8    43    44   ar
     9    44    45   ar
    10    45    46   ar
    11    46    47   ar
    12    47    48   ar
    13     1     2    1
    14     2     3   ar
    15     3     4   ar
    16     4     5    1
    17     4     6   ar
    18     6     7   ar
    19     7     9    1
    20     9    10    1
    21    10    11    1
    22    10    12    1
    23    10    13    1
    24    13    14    1
    25    13    15    1
    26     7     8   ar
    27     1    16    1
    28    16    17   ar
    29    17    18   ar
    30    18    19   ar
    31    19    20    1
    32    19    21   ar
    33    21    22   ar
    34    28    31    1
    35    31    32    1
    36    31    34    1
    37    34    35    1
    38    34    36    1
    39    34    37    1
    40    31    38    1
    41    38    39    1
    42    38    40    1
    43    38    41    1
    44    48    43   ar
    45     8     2   ar
    46    22    16   ar
    47    27    29    1
    48    27    30    1
    49    25    26    1
    50    32    33    1
@<TRIPOS>MOLECULE
*****
 48 50 0 0 0
SMALL
GASTEIGER

@<TRIPOS>ATOM
      1 C         140.7410  140.3978  165.6031 C.3     1  UNL1        0.1152
      2 C         142.1465  139.8878  165.4823 C.ar    1  UNL1        0.0046
      3 C         142.6054  138.7441  166.3376 C.ar    1  UNL1        0.0275
      4 C         144.0108  138.2340  166.2168 C.ar    1  UNL1        0.1429
      5 F         144.4697  137.0904  167.0720 F       1  UNL1       -0.2041
      6 C         144.9573  138.8677  165.2408 C.ar    1  UNL1        0.0667
      7 C         144.4984  140.0114  164.3856 C.ar    1  UNL1        0.1461
      8 C         143.0930  140.5214  164.5064 C.ar    1  UNL1        0.0349
      9 O         145.4450  140.6450  163.4096 O.3     1  UNL1       -0.4263
     10 C         145.0173  141.8490  162.6238 C.3     1  UNL1        0.4723
     11 F         144.5885  140.9597  161.4946 F       1  UNL1       -0.1579
     12 F         145.4462  142.7383  163.7531 F       1  UNL1       -0.1579
     13 C         144.5897  143.0530  161.8381 C.3     1  UNL1        0.4202
     14 F         144.1136  142.8957  160.4244 F       1  UNL1       -0.1876
     15 F         144.6382  144.4144  162.4660 F       1  UNL1       -0.1876
     16 C         141.0002  140.7736  167.0319 C.ar    1  UNL1        0.0792
     17 C         141.9780  141.8643  167.3550 C.ar    1  UNL1        0.0175
     18 C         142.2372  142.2401  168.7839 C.ar    1  UNL1        0.0142
     19 C         141.5187  141.5252  169.8896 C.ar    1  UNL1        0.0768
     20 CL        141.7779  141.9010  171.3185 Cl      1  UNL1       -0.0806
     21 C         140.5409  140.4346  169.5665 C.ar    1  UNL1        0.1098
     22 N         140.2816  140.0588  168.1377 N.ar    1  UNL1       -0.2454
     23 C         139.9221  138.6700  163.8441 C.2     1  UNL1        0.2399
     24 O         139.7064  138.0383  164.2800 O.2     1  UNL1       -0.2736
     25 N         140.4817  140.0220  164.1744 N.am    1  UNL1       -0.2978
     26 H         140.6789  140.6627  163.4533 H       1  UNL1        0.1500
     27 N         138.3457  137.6035  162.2207 N.3     1  UNL1       -0.3126
     28 C         139.6629  138.2942  162.4153 C.3     1  UNL1        0.1699
     29 H         137.8692  137.5208  163.1187 H       1  UNL1        0.1193
     30 H         138.5035  136.6735  161.8325 H       1  UNL1        0.1193
     31 C         140.6772  138.6179  161.3587 C.3     1  UNL1        0.2849
     32 O         141.7697  138.1082  162.2514 O.3     1  UNL1       -0.3715
     33 H         141.3868  137.8010  163.0879 H       1  UNL1        0.2109
     34 C         141.6916  138.9416  160.3022 C.3     1  UNL1        0.4292
     35 F         142.7060  139.2653  159.2457 F       1  UNL1       -0.1672
     36 F         141.2966  140.3747  160.1025 F       1  UNL1       -0.1672
     37 F         142.2142  137.5373  160.3737 F       1  UNL1       -0.1672
     38 C         139.5849  139.1276  160.4661 C.3     1  UNL1        0.4292
     39 F         138.4924  139.6373  159.5733 F       1  UNL1       -0.1672
     40 F         139.2053  140.3145  161.3010 F       1  UNL1       -0.1672
     41 F         139.6981  138.0649  159.4134 F       1  UNL1       -0.1672
     42 C         139.3356  140.9078  165.7240 C.3     1  UNL1        0.0543
     43 C         138.9071  142.1171  164.9466 C.ar    1  UNL1       -0.0199
     44 C         137.9284  141.9756  163.8188 C.ar    1  UNL1       -0.0042
     45 C         137.4999  143.1848  163.0415 C.ar    1  UNL1       -0.0003
     46 C         138.0501  144.5354  163.3920 C.ar    1  UNL1       -0.0000
     47 C         139.0288  144.6769  164.5199 C.ar    1  UNL1       -0.0003
     48 C         139.4573  143.4677  165.2972 C.ar    1  UNL1       -0.0042
@<TRIPOS>BOND
     1    27    28    1
     2    28    23    1
     3    23    24    2
     4    23    25   am
     5    25     1    1
     6     1    42    1
     7    42    43    1
     8    43    44   ar
     9    44    45   ar
    10    45    46   ar
    11    46    47   ar
    12    47    48   ar
    13     1     2    1
    14     2     3   ar
    15     3     4   ar
    16     4     5    1
    17     4     6   ar
    18     6     7   ar
    19     7     9    1
    20     9    10    1
    21    10    11    1
    22    10    12    1
    23    10    13    1
    24    13    14    1
    25    13    15    1
    26     7     8   ar
    27     1    16    1
    28    16    17   ar
    29    17    18   ar
    30    18    19   ar
    31    19    20    1
    32    19    21   ar
    33    21    22   ar
    34    28    31    1
    35    31    32    1
    36    31    34    1
    37    34    35    1
    38    34    36    1
    39    34    37    1
    40    31    38    1
    41    38    39    1
    42    38    40    1
    43    38    41    1
    44    48    43   ar
    45     8     2   ar
    46    22    16   ar
    47    27    29    1
    48    27    30    1
    49    25    26    1
    50    32    33    1
@<TRIPOS>MOLECULE
*****
 48 50 0 0 0
SMALL
GASTEIGER

@<TRIPOS>ATOM
      1 C         140.6119  140.2246  165.4118 C.3     1  UNL1        0.1152
      2 C         142.0457  139.7837  165.4087 C.ar    1  UNL1        0.0046
      3 C         142.4708  138.6084  166.2381 C.ar    1  UNL1        0.0275
      4 C         143.9045  138.1676  166.2351 C.ar    1  UNL1        0.1429
      5 F         144.3295  136.9922  167.0645 F       1  UNL1       -0.2041
      6 C         144.9132  138.9020  165.4026 C.ar    1  UNL1        0.0667
      7 C         144.4881  140.0774  164.5732 C.ar    1  UNL1        0.1461
      8 C         143.0544  140.5182  164.5763 C.ar    1  UNL1        0.0349
      9 O         145.4969  140.8119  163.7408 O.3     1  UNL1       -0.4263
     10 C         145.0775  142.0044  162.9333 C.3     1  UNL1        0.4723
     11 F         145.2689  142.8841  164.1330 F       1  UNL1       -0.1579
     12 F         144.8862  141.1247  161.7335 F       1  UNL1       -0.1579
     13 C         144.6581  143.1968  162.1258 C.3     1  UNL1        0.4202
     14 F         144.5034  144.5340  162.7876 F       1  UNL1       -0.1876
     15 F         144.3934  143.0522  160.6564 F       1  UNL1       -0.1876
     16 C         140.4622  139.7475  163.9977 C.ar    1  UNL1        0.0792
     17 C         139.8409  138.4110  163.7188 C.ar    1  UNL1        0.0175
     18 C         139.6912  137.9339  162.3046 C.ar    1  UNL1        0.0142
     19 C         140.1629  138.7932  161.1692 C.ar    1  UNL1        0.0768
     20 CL        140.0132  138.3161  159.7550 Cl      1  UNL1       -0.0806
     21 C         140.7843  140.1297  161.4481 C.ar    1  UNL1        0.1098
     22 N         140.9339  140.6068  162.8622 N.ar    1  UNL1       -0.2454
     23 C         139.9697  140.0549  167.9236 C.2     1  UNL1        0.2399
     24 O         139.4365  139.4627  167.9468 O.2     1  UNL1       -0.2736
     25 N         140.7616  140.7017  166.8260 N.am    1  UNL1       -0.2978
     26 H         141.3796  141.4394  167.0338 H       1  UNL1        0.1500
     27 N         138.9821  140.1126  170.2213 N.3     1  UNL1       -0.3126
     28 C         140.1194  140.5320  169.3377 C.3     1  UNL1        0.1699
     29 H         138.3106  139.5711  169.6770 H       1  UNL1        0.1193
     30 H         138.5232  140.9407  170.6008 H       1  UNL1        0.1193
     31 C         141.3193  141.3406  169.7335 C.3     1  UNL1        0.2849
     32 O         142.2193  140.2780  169.1757 O.3     1  UNL1       -0.3715
     33 H         141.6817  139.5561  168.8141 H       1  UNL1        0.2109
     34 C         142.5192  142.1491  170.1292 C.3     1  UNL1        0.4292
     35 F         143.7190  142.9576  170.5249 F       1  UNL1       -0.1672
     36 F         142.0345  143.4664  169.6003 F       1  UNL1       -0.1672
     37 F         143.1549  140.9211  170.7106 F       1  UNL1       -0.1672
     38 C         140.4194  142.4031  170.2913 C.3     1  UNL1        0.4292
     39 F         139.5195  143.4657  170.8491 F       1  UNL1       -0.1672
     40 F         139.8917  142.9031  168.9793 F       1  UNL1       -0.1672
     41 F         140.7278  142.1621  171.7394 F       1  UNL1       -0.1672
     42 C         139.1782  140.6654  165.4149 C.3     1  UNL1        0.0543
     43 C         138.7966  141.9809  164.8032 C.ar    1  UNL1       -0.0199
     44 C         139.3896  143.2535  165.3310 C.ar    1  UNL1       -0.0042
     45 C         139.0081  144.5689  164.7194 C.ar    1  UNL1       -0.0003
     46 C         138.0335  144.6116  163.5799 C.ar    1  UNL1       -0.0000
     47 C         137.4405  143.3389  163.0520 C.ar    1  UNL1       -0.0003
     48 C         137.8221  142.0236  163.6637 C.ar    1  UNL1       -0.0042
@<TRIPOS>BOND
     1    27    28    1
     2    28    23    1
     3    23    24    2
     4    23    25   am
     5    25     1    1
     6     1    42    1
     7    42    43    1
     8    43    44   ar
     9    44    45   ar
    10    45    46   ar
    11    46    47   ar
    12    47    48   ar
    13     1     2    1
    14     2     3   ar
    15     3     4   ar
    16     4     5    1
    17     4     6   ar
    18     6     7   ar
    19     7     9    1
    20     9    10    1
    21    10    11    1
    22    10    12    1
    23    10    13    1
    24    13    14    1
    25    13    15    1
    26     7     8   ar
    27     1    16    1
    28    16    17   ar
    29    17    18   ar
    30    18    19   ar
    31    19    20    1
    32    19    21   ar
    33    21    22   ar
    34    28    31    1
    35    31    32    1
    36    31    34    1
    37    34    35    1
    38    34    36    1
    39    34    37    1
    40    31    38    1
    41    38    39    1
    42    38    40    1
    43    38    41    1
    44    48    43   ar
    45     8     2   ar
    46    22    16   ar
    47    27    29    1
    48    27    30    1
    49    25    26    1
    50    32    33    1
@<TRIPOS>MOLECULE
*****
 48 50 0 0 0
SMALL
GASTEIGER

@<TRIPOS>ATOM
      1 C         140.8821  140.3516  165.6990 C.3     1  UNL1        0.1152
      2 C         142.2965  139.8627  165.5966 C.ar    1  UNL1        0.0046
      3 C         142.7490  138.6971  166.4253 C.ar    1  UNL1        0.0275
      4 C         144.1634  138.2082  166.3229 C.ar    1  UNL1        0.1429
      5 F         144.6158  137.0426  167.1516 F       1  UNL1       -0.2041
      6 C         145.1252  138.8848  165.3918 C.ar    1  UNL1        0.0667
      7 C         144.6727  140.0503  164.5631 C.ar    1  UNL1        0.1461
      8 C         143.2584  140.5393  164.6655 C.ar    1  UNL1        0.0349
      9 O         145.6347  140.7269  163.6319 O.3     1  UNL1       -0.4263
     10 C         145.1761  141.8779  162.7864 C.3     1  UNL1        0.4723
     11 F         144.8205  140.9258  161.6833 F       1  UNL1       -0.1579
     12 F         145.5318  142.8300  163.8895 F       1  UNL1       -0.1579
     13 C         144.7176  143.0289  161.9408 C.3     1  UNL1        0.4202
     14 F         144.3061  144.3179  162.5881 F       1  UNL1       -0.1876
     15 F         144.6706  142.8908  160.4479 F       1  UNL1       -0.1876
     16 C         141.1172  140.7317  167.1308 C.ar    1  UNL1        0.0792
     17 C         142.0644  141.8458  167.4653 C.ar    1  UNL1        0.0175
     18 C         142.2995  142.2258  168.8972 C.ar    1  UNL1        0.0142
     19 C         141.5875  141.4919  169.9946 C.ar    1  UNL1        0.0768
     20 CL        141.8226  141.8720  171.4265 Cl      1  UNL1       -0.0806
     21 C         140.6404  140.3778  169.6602 C.ar    1  UNL1        0.1098
     22 N         140.4053  139.9977  168.2283 N.ar    1  UNL1       -0.2454
     23 C         140.4187  138.5350  163.9003 C.2     1  UNL1        0.2399
     24 O         140.3878  137.8555  164.3159 O.2     1  UNL1       -0.2736
     25 N         140.6470  139.9715  164.2672 N.am    1  UNL1       -0.2978
     26 H         140.6424  140.6648  163.5682 H       1  UNL1        0.1500
     27 N         141.2132  137.2016  161.9384 N.3     1  UNL1       -0.3126
     28 C         140.1835  138.1549  162.4684 C.3     1  UNL1        0.1699
     29 H         141.8906  136.9908  162.6713 H       1  UNL1        0.1193
     30 H         141.6925  137.6258  161.1442 H       1  UNL1        0.1193
     31 C         139.0107  138.7221  161.7248 C.3     1  UNL1        0.2849
     32 O         138.1446  138.5135  162.9316 O.3     1  UNL1       -0.3715
     33 H         138.6729  138.1227  163.6451 H       1  UNL1        0.2109
     34 C         137.8380  139.2892  160.9812 C.3     1  UNL1        0.4292
     35 F         136.6652  139.8563  160.2375 F       1  UNL1       -0.1672
     36 F         138.5182  140.5313  160.4870 F       1  UNL1       -0.1672
     37 F         137.0086  138.1073  161.3878 F       1  UNL1       -0.1672
     38 C         139.8768  138.9307  160.5180 C.3     1  UNL1        0.4292
     39 F         140.7429  139.1393  159.3111 F       1  UNL1       -0.1672
     40 F         140.7496  140.0015  161.1022 F       1  UNL1       -0.1672
     41 F         139.2150  137.9106  159.6395 F       1  UNL1       -0.1672
     42 C         139.4678  140.8405  165.8015 C.3     1  UNL1        0.0543
     43 C         139.0262  142.0315  165.0035 C.ar    1  UNL1       -0.0199
     44 C         138.0688  141.8565  163.8622 C.ar    1  UNL1       -0.0042
     45 C         137.6273  143.0475  163.0643 C.ar    1  UNL1       -0.0003
     46 C         138.1432  144.4134  163.4078 C.ar    1  UNL1       -0.0000
     47 C         139.1006  144.5884  164.5492 C.ar    1  UNL1       -0.0003
     48 C         139.5421  143.3975  165.3470 C.ar    1  UNL1       -0.0042
@<TRIPOS>BOND
     1    27    28    1
     2    28    23    1
     3    23    24    2
     4    23    25   am
     5    25     1    1
     6     1    42    1
     7    42    43    1
     8    43    44   ar
     9    44    45   ar
    10    45    46   ar
    11    46    47   ar
    12    47    48   ar
    13     1     2    1
    14     2     3   ar
    15     3     4   ar
    16     4     5    1
    17     4     6   ar
    18     6     7   ar
    19     7     9    1
    20     9    10    1
    21    10    11    1
    22    10    12    1
    23    10    13    1
    24    13    14    1
    25    13    15    1
    26     7     8   ar
    27     1    16    1
    28    16    17   ar
    29    17    18   ar
    30    18    19   ar
    31    19    20    1
    32    19    21   ar
    33    21    22   ar
    34    28    31    1
    35    31    32    1
    36    31    34    1
    37    34    35    1
    38    34    36    1
    39    34    37    1
    40    31    38    1
    41    38    39    1
    42    38    40    1
    43    38    41    1
    44    48    43   ar
    45     8     2   ar
    46    22    16   ar
    47    27    29    1
    48    27    30    1
    49    25    26    1
    50    32    33    1
@<TRIPOS>MOLECULE
*****
 48 50 0 0 0
SMALL
GASTEIGER

@<TRIPOS>ATOM
      1 C         140.6087  142.3743  160.4084 C.3     1  UNL1        0.1152
      2 C         141.2763  141.0921  160.0079 C.ar    1  UNL1        0.0046
      3 C         142.0342  141.0129  158.7159 C.ar    1  UNL1        0.0275
      4 C         142.7018  139.7307  158.3154 C.ar    1  UNL1        0.1429
      5 F         143.4597  139.6516  157.0234 F       1  UNL1       -0.2041
      6 C         142.6115  138.5278  159.2069 C.ar    1  UNL1        0.0667
      7 C         141.8535  138.6070  160.4989 C.ar    1  UNL1        0.1461
      8 C         141.1860  139.8891  160.8994 C.ar    1  UNL1        0.0349
      9 O         141.7632  137.4040  161.3903 O.3     1  UNL1       -0.4263
     10 C         141.6488  137.5782  162.8758 C.3     1  UNL1        0.4723
     11 F         143.0898  137.9898  162.9385 F       1  UNL1       -0.1579
     12 F         140.2078  137.1665  162.8131 F       1  UNL1       -0.1579
     13 C         141.5344  137.7524  164.3612 C.3     1  UNL1        0.4202
     14 F         140.1984  137.6229  165.0308 F       1  UNL1       -0.1876
     15 F         142.7560  138.0560  165.1770 F       1  UNL1       -0.1876
     16 C         139.6140  142.2029  159.2989 C.ar    1  UNL1        0.0792
     17 C         139.5062  143.2408  158.2213 C.ar    1  UNL1        0.0175
     18 C         138.5115  143.0694  157.1117 C.ar    1  UNL1        0.0142
     19 C         137.6246  141.8601  157.0797 C.ar    1  UNL1        0.0768
     20 CL        136.6298  141.6887  155.9700 Cl      1  UNL1       -0.0806
     21 C         137.7324  140.8222  158.1572 C.ar    1  UNL1        0.1098
     22 N         138.7271  140.9936  159.2668 N.ar    1  UNL1       -0.2454
     23 C         142.7571  143.4898  161.3519 C.2     1  UNL1        0.2399
     24 O         142.9985  143.9712  160.7641 O.2     1  UNL1       -0.2736
     25 N         141.6034  142.5456  161.5180 N.am    1  UNL1       -0.2978
     26 H         141.4990  142.0384  162.3553 H       1  UNL1        0.1500
     27 N         144.0467  145.0998  162.7672 N.3     1  UNL1       -0.3126
     28 C         143.7517  143.6612  162.4615 C.3     1  UNL1        0.1699
     29 H         143.5011  145.6980  162.1469 H       1  UNL1        0.1193
     30 H         145.0406  145.2805  162.6262 H       1  UNL1        0.1193
     31 C         144.3373  142.4564  163.1366 C.3     1  UNL1        0.2849
     32 O         144.6953  141.8807  161.7985 O.3     1  UNL1       -0.3715
     33 H         144.4156  142.4911  161.0985 H       1  UNL1        0.2109
     34 C         144.9228  141.2517  163.8116 C.3     1  UNL1        0.4292
     35 F         145.5083  140.0469  164.4866 F       1  UNL1       -0.1672
     36 F         143.6567  140.7694  164.4552 F       1  UNL1       -0.1672
     37 F         146.2704  141.5896  163.2459 F       1  UNL1       -0.1672
     38 C         143.9792  143.0321  164.4746 C.3     1  UNL1        0.4292
     39 F         143.6211  143.6078  165.8127 F       1  UNL1       -0.1672
     40 F         145.3800  143.1860  164.9882 F       1  UNL1       -0.1672
     41 F         142.4910  143.0186  164.2871 F       1  UNL1       -0.1672
     42 C         139.9411  143.6564  160.8089 C.3     1  UNL1        0.0543
     43 C         139.2564  143.7618  162.1394 C.ar    1  UNL1       -0.0199
     44 C         138.1314  142.8300  162.4799 C.ar    1  UNL1       -0.0042
     45 C         137.4468  142.9354  163.8103 C.ar    1  UNL1       -0.0003
     46 C         137.8873  143.9727  164.8003 C.ar    1  UNL1       -0.0000
     47 C         139.0123  144.9045  164.4599 C.ar    1  UNL1       -0.0003
     48 C         139.6969  144.7990  163.1294 C.ar    1  UNL1       -0.0042
@<TRIPOS>BOND
     1    27    28    1
     2    28    23    1
     3    23    24    2
     4    23    25   am
     5    25     1    1
     6     1    42    1
     7    42    43    1
     8    43    44   ar
     9    44    45   ar
    10    45    46   ar
    11    46    47   ar
    12    47    48   ar
    13     1     2    1
    14     2     3   ar
    15     3     4   ar
    16     4     5    1
    17     4     6   ar
    18     6     7   ar
    19     7     9    1
    20     9    10    1
    21    10    11    1
    22    10    12    1
    23    10    13    1
    24    13    14    1
    25    13    15    1
    26     7     8   ar
    27     1    16    1
    28    16    17   ar
    29    17    18   ar
    30    18    19   ar
    31    19    20    1
    32    19    21   ar
    33    21    22   ar
    34    28    31    1
    35    31    32    1
    36    31    34    1
    37    34    35    1
    38    34    36    1
    39    34    37    1
    40    31    38    1
    41    38    39    1
    42    38    40    1
    43    38    41    1
    44    48    43   ar
    45     8     2   ar
    46    22    16   ar
    47    27    29    1
    48    27    30    1
    49    25    26    1
    50    32    33    1
@<TRIPOS>MOLECULE
*****
 48 50 0 0 0
SMALL
GASTEIGER

@<TRIPOS>ATOM
      1 C         142.6116  140.2243  160.6112 C.3     1  UNL1        0.1152
      2 C         142.0531  141.4371  159.9275 C.ar    1  UNL1        0.0046
      3 C         142.6501  141.9115  158.6359 C.ar    1  UNL1        0.0275
      4 C         142.0917  143.1242  157.9522 C.ar    1  UNL1        0.1429
      5 F         142.6888  143.5987  156.6605 F       1  UNL1       -0.2041
      6 C         140.9361  143.8624  158.5602 C.ar    1  UNL1        0.0667
      7 C         140.3390  143.3879  159.8518 C.ar    1  UNL1        0.1461
      8 C         140.8975  142.1753  160.5355 C.ar    1  UNL1        0.0349
      9 O         139.1834  144.1262  160.4598 O.3     1  UNL1       -0.4263
     10 C         138.9972  144.1331  161.9481 C.3     1  UNL1        0.4723
     11 F         137.8225  143.2114  161.8054 F       1  UNL1       -0.1579
     12 F         140.1720  145.0547  162.0908 F       1  UNL1       -0.1579
     13 C         138.8111  144.1399  163.4365 C.3     1  UNL1        0.4202
     14 F         139.4612  145.2051  164.2688 F       1  UNL1       -0.1876
     15 F         137.9748  143.0815  164.0926 F       1  UNL1       -0.1876
     16 C         142.2165  139.3800  159.4361 C.ar    1  UNL1        0.0792
     17 C         140.7660  139.1740  159.1144 C.ar    1  UNL1        0.0175
     18 C         140.3709  138.3296  157.9392 C.ar    1  UNL1        0.0142
     19 C         141.4264  137.6912  157.0858 C.ar    1  UNL1        0.0768
     20 CL        141.0313  136.8468  155.9106 Cl      1  UNL1       -0.0806
     21 C         142.8769  137.8971  157.4075 C.ar    1  UNL1        0.1098
     22 N         143.2720  138.7415  158.5826 N.ar    1  UNL1       -0.2454
     23 C         144.4261  141.5308  161.9344 C.2     1  UNL1        0.2399
     24 O         145.0890  141.4306  161.5031 O.2     1  UNL1       -0.2736
     25 N         143.0067  141.0687  161.7863 N.am    1  UNL1       -0.2978
     26 H         142.3344  141.3196  162.4604 H       1  UNL1        0.1500
     27 N         146.0604  141.8816  163.7956 N.3     1  UNL1       -0.3126
     28 C         144.8212  142.3751  163.1095 C.3     1  UNL1        0.1699
     29 H         146.4034  141.0474  163.3194 H       1  UNL1        0.1193
     30 H         145.8441  141.6544  164.7662 H       1  UNL1        0.1193
     31 C         143.9980  143.5720  163.4837 C.3     1  UNL1        0.2849
     32 O         143.9658  143.9992  162.0461 O.3     1  UNL1       -0.3715
     33 H         144.4607  143.3616  161.5081 H       1  UNL1        0.2109
     34 C         143.1749  144.7689  163.8577 C.3     1  UNL1        0.4292
     35 F         142.3518  145.9658  164.2317 F       1  UNL1       -0.1672
     36 F         142.0970  144.0274  164.5914 F       1  UNL1       -0.1672
     37 F         144.1598  145.6630  163.1644 F       1  UNL1       -0.1672
     38 C         144.0302  143.1449  164.9212 C.3     1  UNL1        0.4292
     39 F         144.0624  142.7178  166.3588 F       1  UNL1       -0.1672
     40 F         143.2435  141.8789  164.7534 F       1  UNL1       -0.1672
     41 F         144.8248  144.3069  165.4394 F       1  UNL1       -0.1672
     42 C         143.1701  139.0116  161.2948 C.3     1  UNL1        0.0543
     43 C         142.4860  138.4521  162.5069 C.ar    1  UNL1       -0.0199
     44 C         143.0940  138.6406  163.8652 C.ar    1  UNL1       -0.0042
     45 C         142.4099  138.0812  165.0772 C.ar    1  UNL1       -0.0003
     46 C         141.1179  137.3333  164.9310 C.ar    1  UNL1       -0.0000
     47 C         140.5100  137.1448  163.5727 C.ar    1  UNL1       -0.0003
     48 C         141.1940  137.7042  162.3607 C.ar    1  UNL1       -0.0042
@<TRIPOS>BOND
     1    27    28    1
     2    28    23    1
     3    23    24    2
     4    23    25   am
     5    25     1    1
     6     1    42    1
     7    42    43    1
     8    43    44   ar
     9    44    45   ar
    10    45    46   ar
    11    46    47   ar
    12    47    48   ar
    13     1     2    1
    14     2     3   ar
    15     3     4   ar
    16     4     5    1
    17     4     6   ar
    18     6     7   ar
    19     7     9    1
    20     9    10    1
    21    10    11    1
    22    10    12    1
    23    10    13    1
    24    13    14    1
    25    13    15    1
    26     7     8   ar
    27     1    16    1
    28    16    17   ar
    29    17    18   ar
    30    18    19   ar
    31    19    20    1
    32    19    21   ar
    33    21    22   ar
    34    28    31    1
    35    31    32    1
    36    31    34    1
    37    34    35    1
    38    34    36    1
    39    34    37    1
    40    31    38    1
    41    38    39    1
    42    38    40    1
    43    38    41    1
    44    48    43   ar
    45     8     2   ar
    46    22    16   ar
    47    27    29    1
    48    27    30    1
    49    25    26    1
    50    32    33    1
@<TRIPOS>MOLECULE
*****
 48 50 0 0 0
SMALL
GASTEIGER

@<TRIPOS>ATOM
      1 C         140.5405  140.2409  160.2472 C.3     1  UNL1        0.1152
      2 C         141.6238  141.1275  159.7084 C.ar    1  UNL1        0.0046
      3 C         141.5447  141.6370  158.2998 C.ar    1  UNL1        0.0275
      4 C         142.6279  142.5237  157.7610 C.ar    1  UNL1        0.1429
      5 F         142.5488  143.0332  156.3524 F       1  UNL1       -0.2041
      6 C         143.7903  142.9008  158.6308 C.ar    1  UNL1        0.0667
      7 C         143.8695  142.3913  160.0393 C.ar    1  UNL1        0.1461
      8 C         142.7862  141.5047  160.5782 C.ar    1  UNL1        0.0349
      9 O         145.0319  142.7685  160.9091 O.3     1  UNL1       -0.4263
     10 C         144.9079  142.6912  162.4020 C.3     1  UNL1        0.4723
     11 F         145.4685  141.3002  162.3766 F       1  UNL1       -0.1579
     12 F         144.3472  144.0822  162.4274 F       1  UNL1       -0.1579
     13 C         144.7838  142.6139  163.8948 C.3     1  UNL1        0.4202
     14 F         144.5478  143.8615  164.6934 F       1  UNL1       -0.1876
     15 F         144.8957  141.2889  164.5891 F       1  UNL1       -0.1876
     16 C         140.8482  139.2224  159.1899 C.ar    1  UNL1        0.0792
     17 C         142.2132  138.6046  159.1183 C.ar    1  UNL1        0.0175
     18 C         142.5210  137.5861  158.0610 C.ar    1  UNL1        0.0142
     19 C         141.4638  137.1854  157.0752 C.ar    1  UNL1        0.0768
     20 CL        141.7715  136.1669  156.0178 Cl      1  UNL1       -0.0806
     21 C         140.0988  137.8032  157.1468 C.ar    1  UNL1        0.1098
     22 N         139.7910  138.8217  158.2041 N.ar    1  UNL1       -0.2454
     23 C         139.2013  142.3180  161.0485 C.2     1  UNL1        0.2399
     24 O         138.7287  142.4930  160.4308 O.2     1  UNL1       -0.2736
     25 N         140.2327  141.2593  161.3045 N.am    1  UNL1       -0.2978
     26 H         140.7076  141.2330  162.1665 H       1  UNL1        0.1500
     27 N         137.4233  143.4929  162.3587 N.3     1  UNL1       -0.3126
     28 C         138.8935  143.3365  162.1058 C.3     1  UNL1        0.1699
     29 H         136.9043  142.8616  161.7484 H       1  UNL1        0.1193
     30 H         137.1458  144.4556  162.1670 H       1  UNL1        0.1193
     31 C         140.0097  144.0730  162.7853 C.3     1  UNL1        0.2849
     32 O         140.6630  144.3096  161.4559 O.3     1  UNL1       -0.3715
     33 H         140.1232  143.9115  160.7550 H       1  UNL1        0.2109
     34 C         141.1259  144.8095  163.4647 C.3     1  UNL1        0.4292
     35 F         142.2421  145.5460  164.1442 F       1  UNL1       -0.1672
     36 F         141.5369  143.7040  164.3914 F       1  UNL1       -0.1672
     37 F         140.8488  146.0139  162.6145 F       1  UNL1       -0.1672
     38 C         139.3565  143.8366  164.1147 C.3     1  UNL1        0.4292
     39 F         138.7033  143.6000  165.4442 F       1  UNL1       -0.1672
     40 F         139.0409  145.2705  164.4211 F       1  UNL1       -0.1672
     41 F         139.5129  142.3447  164.1325 F       1  UNL1       -0.1672
     42 C         139.4572  139.3542  160.7859 C.3     1  UNL1        0.0543
     43 C         139.6121  138.7154  162.1343 C.ar    1  UNL1       -0.0199
     44 C         140.7979  137.8420  162.4186 C.ar    1  UNL1       -0.0042
     45 C         140.9528  137.2032  163.7669 C.ar    1  UNL1       -0.0003
     46 C         139.9218  137.4378  164.8309 C.ar    1  UNL1       -0.0000
     47 C         138.7360  138.3112  164.5465 C.ar    1  UNL1       -0.0003
     48 C         138.5811  138.9500  163.1983 C.ar    1  UNL1       -0.0042
@<TRIPOS>BOND
     1    27    28    1
     2    28    23    1
     3    23    24    2
     4    23    25   am
     5    25     1    1
     6     1    42    1
     7    42    43    1
     8    43    44   ar
     9    44    45   ar
    10    45    46   ar
    11    46    47   ar
    12    47    48   ar
    13     1     2    1
    14     2     3   ar
    15     3     4   ar
    16     4     5    1
    17     4     6   ar
    18     6     7   ar
    19     7     9    1
    20     9    10    1
    21    10    11    1
    22    10    12    1
    23    10    13    1
    24    13    14    1
    25    13    15    1
    26     7     8   ar
    27     1    16    1
    28    16    17   ar
    29    17    18   ar
    30    18    19   ar
    31    19    20    1
    32    19    21   ar
    33    21    22   ar
    34    28    31    1
    35    31    32    1
    36    31    34    1
    37    34    35    1
    38    34    36    1
    39    34    37    1
    40    31    38    1
    41    38    39    1
    42    38    40    1
    43    38    41    1
    44    48    43   ar
    45     8     2   ar
    46    22    16   ar
    47    27    29    1
    48    27    30    1
    49    25    26    1
    50    32    33    1
@<TRIPOS>MOLECULE
*****
 48 50 0 0 0
SMALL
GASTEIGER

@<TRIPOS>ATOM
      1 C         141.5458  140.8811  160.9128 C.3     1  UNL1        0.1152
      2 C         141.2848  142.3187  160.5732 C.ar    1  UNL1        0.0046
      3 C         141.9628  142.9450  159.3908 C.ar    1  UNL1        0.0275
      4 C         141.7019  144.3826  159.0512 C.ar    1  UNL1        0.1429
      5 F         142.3799  145.0089  157.8688 F       1  UNL1       -0.2041
      6 C         140.7629  145.1938  159.8939 C.ar    1  UNL1        0.0667
      7 C         140.0849  144.5675  161.0763 C.ar    1  UNL1        0.1461
      8 C         140.3458  143.1299  161.4159 C.ar    1  UNL1        0.0349
      9 O         139.1459  145.3787  161.9190 O.3     1  UNL1       -0.4263
     10 C         138.7766  144.9089  163.2948 C.3     1  UNL1        0.4723
     11 F         137.4328  144.4775  162.7868 F       1  UNL1       -0.1579
     12 F         140.1204  145.3403  163.8028 F       1  UNL1       -0.1579
     13 C         138.4073  144.4391  164.6706 C.3     1  UNL1        0.4202
     14 F         138.5741  145.3557  165.8461 F       1  UNL1       -0.1876
     15 F         137.8711  143.0525  164.8709 F       1  UNL1       -0.1876
     16 C         140.8944  140.4597  159.6291 C.ar    1  UNL1        0.0792
     17 C         139.4235  140.6750  159.4284 C.ar    1  UNL1        0.0175
     18 C         138.7721  140.2535  158.1446 C.ar    1  UNL1        0.0142
     19 C         139.5915  139.6167  157.0616 C.ar    1  UNL1        0.0768
     20 CL        138.9401  139.1951  155.7778 Cl      1  UNL1       -0.0806
     21 C         141.0623  139.4013  157.2623 C.ar    1  UNL1        0.1098
     22 N         141.7138  139.8228  158.5460 N.ar    1  UNL1       -0.2454
     23 C         143.6812  141.5147  162.2502 C.2     1  UNL1        0.2399
     24 O         144.2691  141.4537  161.7152 O.2     1  UNL1       -0.2736
     25 N         142.1972  141.3026  162.1965 N.am    1  UNL1       -0.2978
     26 H         141.6508  141.4401  163.0039 H       1  UNL1        0.1500
     27 N         145.8210  142.0802  163.4162 N.3     1  UNL1       -0.3126
     28 C         144.3326  141.9362  163.5339 C.3     1  UNL1        0.1699
     29 H         146.1098  141.8584  162.4634 H       1  UNL1        0.1193
     30 H         146.2770  141.4408  164.0671 H       1  UNL1        0.1193
     31 C         143.4975  142.1664  164.7585 C.3     1  UNL1        0.2849
     32 O         143.1194  140.7148  164.7736 O.3     1  UNL1       -0.3715
     33 H         143.5471  140.2616  164.0302 H       1  UNL1        0.2109
     34 C         142.6624  142.3965  165.9831 C.3     1  UNL1        0.4292
     35 F         141.8273  142.6267  167.2076 F       1  UNL1       -0.1672
     36 F         141.7817  143.4646  165.4056 F       1  UNL1       -0.1672
     37 F         143.4472  141.3486  166.7153 F       1  UNL1       -0.1672
     38 C         143.8755  143.6178  164.7436 C.3     1  UNL1        0.4292
     39 F         144.2536  145.0694  164.7285 F       1  UNL1       -0.1672
     40 F         144.6813  143.6100  166.0086 F       1  UNL1       -0.1672
     41 F         143.1619  143.9796  163.4747 F       1  UNL1       -0.1672
     42 C         141.8067  139.4436  161.2524 C.3     1  UNL1        0.0543
     43 C         141.1203  138.8142  162.4283 C.ar    1  UNL1       -0.0199
     44 C         141.8567  137.8302  163.2882 C.ar    1  UNL1       -0.0042
     45 C         141.1703  137.2009  164.4641 C.ar    1  UNL1       -0.0003
     46 C         139.7475  137.5554  164.7800 C.ar    1  UNL1       -0.0000
     47 C         139.0110  138.5393  163.9200 C.ar    1  UNL1       -0.0003
     48 C         139.6975  139.1687  162.7442 C.ar    1  UNL1       -0.0042
@<TRIPOS>BOND
     1    27    28    1
     2    28    23    1
     3    23    24    2
     4    23    25   am
     5    25     1    1
     6     1    42    1
     7    42    43    1
     8    43    44   ar
     9    44    45   ar
    10    45    46   ar
    11    46    47   ar
    12    47    48   ar
    13     1     2    1
    14     2     3   ar
    15     3     4   ar
    16     4     5    1
    17     4     6   ar
    18     6     7   ar
    19     7     9    1
    20     9    10    1
    21    10    11    1
    22    10    12    1
    23    10    13    1
    24    13    14    1
    25    13    15    1
    26     7     8   ar
    27     1    16    1
    28    16    17   ar
    29    17    18   ar
    30    18    19   ar
    31    19    20    1
    32    19    21   ar
    33    21    22   ar
    34    28    31    1
    35    31    32    1
    36    31    34    1
    37    34    35    1
    38    34    36    1
    39    34    37    1
    40    31    38    1
    41    38    39    1
    42    38    40    1
    43    38    41    1
    44    48    43   ar
    45     8     2   ar
    46    22    16   ar
    47    27    29    1
    48    27    30    1
    49    25    26    1
    50    32    33    1
@<TRIPOS>MOLECULE
*****
 48 50 0 0 0
SMALL
GASTEIGER

@<TRIPOS>ATOM
      1 C         140.0071  142.0799  160.8015 C.3     1  UNL1        0.1152
      2 C         141.2222  141.3402  160.3254 C.ar    1  UNL1        0.0046
      3 C         141.2231  140.6911  158.9732 C.ar    1  UNL1        0.0275
      4 C         142.4380  139.9514  158.4971 C.ar    1  UNL1        0.1429
      5 F         142.4389  139.3023  157.1448 F       1  UNL1       -0.2041
      6 C         143.6521  139.8608  159.3733 C.ar    1  UNL1        0.0667
      7 C         143.6512  140.5099  160.7256 C.ar    1  UNL1        0.1461
      8 C         142.4362  141.2496  161.2016 C.ar    1  UNL1        0.0349
      9 O         144.8654  140.4194  161.6018 O.3     1  UNL1       -0.4263
     10 C         144.7175  140.0819  163.0558 C.3     1  UNL1        0.4723
     11 F         145.3873  141.3727  163.4235 F       1  UNL1       -0.1579
     12 F         144.0477  138.7912  162.6881 F       1  UNL1       -0.1579
     13 C         144.5696  139.7445  164.5098 C.3     1  UNL1        0.4202
     14 F         145.5001  138.7569  165.1490 F       1  UNL1       -0.1876
     15 F         143.4910  140.3948  165.3247 F       1  UNL1       -0.1876
     16 C         140.2128  143.1080  159.7288 C.ar    1  UNL1        0.0792
     17 C         141.2949  144.1366  159.8734 C.ar    1  UNL1        0.0175
     18 C         141.5006  145.1647  158.8006 C.ar    1  UNL1        0.0142
     19 C         140.6241  145.1642  157.5834 C.ar    1  UNL1        0.0768
     20 CL        140.8298  146.1924  156.5106 Cl      1  UNL1       -0.0806
     21 C         139.5420  144.1356  157.4388 C.ar    1  UNL1        0.1098
     22 N         139.3363  143.1075  158.5115 N.ar    1  UNL1       -0.2454
     23 C         138.9089  139.8728  161.6219 C.2     1  UNL1        0.2399
     24 O         138.4733  139.6312  160.9995 O.2     1  UNL1       -0.2736
     25 N         139.8014  141.0518  161.8742 N.am    1  UNL1       -0.2978
     26 H         140.2522  141.1508  162.7438 H       1  UNL1        0.1500
     27 N         138.2851  137.5094  162.1541 N.3     1  UNL1       -0.3126
     28 C         138.7033  138.8447  162.6945 C.3     1  UNL1        0.1699
     29 H         138.2198  137.5594  161.1375 H       1  UNL1        0.1193
     30 H         137.3762  137.2555  162.5412 H       1  UNL1        0.1193
     31 C         138.9182  139.2090  164.1337 C.3     1  UNL1        0.2849
     32 O         137.9479  140.3441  163.9914 O.3     1  UNL1       -0.3715
     33 H         137.6077  140.3666  163.0833 H       1  UNL1        0.2109
     34 C         139.1332  139.5733  165.5728 C.3     1  UNL1        0.4292
     35 F         139.3481  139.9376  167.0119 F       1  UNL1       -0.1672
     36 F         140.6286  139.6742  165.5145 F       1  UNL1       -0.1672
     37 F         137.6528  139.5165  165.8084 F       1  UNL1       -0.1672
     38 C         139.8885  138.0741  164.2761 C.3     1  UNL1        0.4292
     39 F         140.8589  136.9391  164.4185 F       1  UNL1       -0.1672
     40 F         139.0611  137.2422  165.2104 F       1  UNL1       -0.1672
     41 F         140.9527  138.6294  163.3764 F       1  UNL1       -0.1672
     42 C         138.7921  142.8196  161.2775 C.3     1  UNL1        0.0543
     43 C         138.8031  143.4974  162.6156 C.ar    1  UNL1       -0.0199
     44 C         140.0656  144.1241  163.1286 C.ar    1  UNL1       -0.0042
     45 C         140.0764  144.8018  164.4667 C.ar    1  UNL1       -0.0003
     46 C         138.8248  144.8528  165.2918 C.ar    1  UNL1       -0.0000
     47 C         137.5623  144.2260  164.7789 C.ar    1  UNL1       -0.0003
     48 C         137.5514  143.5483  163.4408 C.ar    1  UNL1       -0.0042
@<TRIPOS>BOND
     1    27    28    1
     2    28    23    1
     3    23    24    2
     4    23    25   am
     5    25     1    1
     6     1    42    1
     7    42    43    1
     8    43    44   ar
     9    44    45   ar
    10    45    46   ar
    11    46    47   ar
    12    47    48   ar
    13     1     2    1
    14     2     3   ar
    15     3     4   ar
    16     4     5    1
    17     4     6   ar
    18     6     7   ar
    19     7     9    1
    20     9    10    1
    21    10    11    1
    22    10    12    1
    23    10    13    1
    24    13    14    1
    25    13    15    1
    26     7     8   ar
    27     1    16    1
    28    16    17   ar
    29    17    18   ar
    30    18    19   ar
    31    19    20    1
    32    19    21   ar
    33    21    22   ar
    34    28    31    1
    35    31    32    1
    36    31    34    1
    37    34    35    1
    38    34    36    1
    39    34    37    1
    40    31    38    1
    41    38    39    1
    42    38    40    1
    43    38    41    1
    44    48    43   ar
    45     8     2   ar
    46    22    16   ar
    47    27    29    1
    48    27    30    1
    49    25    26    1
    50    32    33    1
