@<TRIPOS>MOLECULE
*****
 50 54 0 0 0
SMALL
GASTEIGER

@<TRIPOS>ATOM
      1 C         140.8185  142.8379  159.3850 C.ar    1  UNL1        0.0197
      2 C         140.0204  142.7194  158.1205 C.ar    1  UNL1        0.0986
      3 N         139.6516  143.9512  157.3481 N.ar    1  UNL1       -0.2399
      4 C         140.0809  145.3016  157.8402 C.ar    1  UNL1        0.1524
      5 C         140.8790  145.4201  159.1048 C.ar    1  UNL1        0.0205
      6 C         141.2477  144.1882  159.8772 C.ar    1  UNL1        0.0008
      7 C         142.3021  140.7251  159.6768 C.ar    1  UNL1        0.1387
      8 C         142.6708  139.4933  160.4491 C.ar    1  UNL1        0.0369
      9 C         141.9246  139.1424  161.7022 C.ar    1  UNL1        0.0031
     10 C         140.8098  140.0232  162.1828 C.ar    1  UNL1       -0.0001
     11 C         140.4411  141.2551  161.4104 C.ar    1  UNL1        0.0030
     12 C         141.1872  141.6060  160.1574 C.ar    1  UNL1        0.0352
     13 C         140.0636  139.6723  163.4359 C.ar    1  UNL1       -0.0039
     14 C         138.9245  140.5327  163.8963 C.ar    1  UNL1       -0.0003
     15 C         138.1783  140.1817  165.1493 C.ar    1  UNL1        0.0011
     16 C         138.5713  138.9704  165.9419 C.ar    1  UNL1        0.0137
     17 C         139.7104  138.1100  165.4815 C.ar    1  UNL1       -0.0031
     18 C         140.4566  138.4610  164.2284 C.ar    1  UNL1       -0.0218
     19 C         141.5958  137.6005  163.7680 C.3     1  UNL1        0.0310
     20 C         137.8251  138.6195  167.1949 C.2     1  UNL1        0.0729
     21 O         136.7054  137.6226  167.1468 O.co2   1  UNL1       -0.5446
     22 O         138.1987  139.2654  168.4961 O.co2   1  UNL1       -0.5446
     23 C         144.2771  141.9330  158.4977 C.3     1  UNL1        0.2525
     24 O         143.0482  141.0761  158.4237 O.3     1  UNL1       -0.4714
     25 C         139.7122  146.5334  157.0679 C.3     1  UNL1        0.4348
     26 F         139.3434  147.7652  156.2955 F       1  UNL1       -0.1644
     27 F         140.0875  145.8443  155.7896 F       1  UNL1       -0.1644
     28 F         139.3368  147.2226  158.3461 F       1  UNL1       -0.1644
     29 C         142.0458  144.3068  161.1417 C.3     1  UNL1        0.1236
     30 N         141.3943  144.0440  162.4671 N.am    1  UNL1       -0.2396
     31 C         140.0766  144.5943  162.9263 C.2     1  UNL1        0.4054
     32 O         139.1791  145.5039  162.1409 O.2     1  UNL1       -0.2262
     33 O         139.8141  144.0752  164.3090 O.3     1  UNL1       -0.4320
     34 C         140.9696  143.2041  164.7042 C.3     1  UNL1        0.2107
     35 C         141.9462  143.1848  163.5659 C.3     1  UNL1        0.1232
     36 C         143.2464  142.4376  163.5322 C.3     1  UNL1        0.0258
     37 C         141.1217  142.4795  166.0087 C.ar    1  UNL1        0.0189
     38 C         140.4848  143.0290  167.2507 C.ar    1  UNL1        0.0031
     39 C         140.6369  142.3045  168.5551 C.ar    1  UNL1        0.0712
     40 C         141.4260  141.0303  168.6178 C.ar    1  UNL1        0.0077
     41 C         142.0629  140.4807  167.3759 C.ar    1  UNL1        0.0712
     42 C         141.9107  141.2054  166.0714 C.ar    1  UNL1        0.0031
     43 C         140.0000  142.8540  169.7970 C.3     1  UNL1        0.4186
     44 F         139.3631  143.4036  171.0389 F       1  UNL1       -0.1659
     45 F         139.2727  141.5576  169.9977 F       1  UNL1       -0.1659
     46 F         140.7273  144.1505  169.5964 F       1  UNL1       -0.1659
     47 C         142.8520  139.2066  167.4385 C.3     1  UNL1        0.4186
     48 F         143.6410  137.9324  167.5012 F       1  UNL1       -0.1659
     49 F         143.2591  139.3883  166.0063 F       1  UNL1       -0.1659
     50 F         142.4448  139.0249  168.8707 F       1  UNL1       -0.1659
@<TRIPOS>UNITY_ATOM_ATTR
21 1
charge -1
@<TRIPOS>BOND
     1    23    24    1
     2    24     7    1
     3     7     8   ar
     4     8     9   ar
     5     9    10   ar
     6    10    13    1
     7    13    14   ar
     8    14    15   ar
     9    15    16   ar
    10    16    20    1
    11    20    21   ar
    12    20    22   ar
    13    16    17   ar
    14    17    18   ar
    15    18    19    1
    16    10    11   ar
    17    11    12   ar
    18    12     1    1
    19     1     2   ar
    20     2     3   ar
    21     3     4   ar
    22     4    25    1
    23    25    26    1
    24    25    27    1
    25    25    28    1
    26     4     5   ar
    27     5     6   ar
    28     6    29    1
    29    29    30    1
    30    30    31   am
    31    31    32    2
    32    31    33    1
    33    33    34    1
    34    34    37    1
    35    37    38   ar
    36    38    39   ar
    37    39    43    1
    38    43    44    1
    39    43    45    1
    40    43    46    1
    41    39    40   ar
    42    40    41   ar
    43    41    47    1
    44    47    48    1
    45    47    49    1
    46    47    50    1
    47    41    42   ar
    48    34    35    1
    49    35    36    1
    50    12     7   ar
    51     6     1   ar
    52    35    30    1
    53    18    13   ar
    54    42    37   ar
@<TRIPOS>MOLECULE
*****
 50 54 0 0 0
SMALL
GASTEIGER

@<TRIPOS>ATOM
      1 C         140.5311  142.3461  158.8946 C.ar    1  UNL1        0.0197
      2 C         139.5682  142.3650  157.7446 C.ar    1  UNL1        0.0986
      3 N         139.3182  143.6410  156.9967 N.ar    1  UNL1       -0.2399
      4 C         140.0310  144.8981  157.3988 C.ar    1  UNL1        0.1524
      5 C         140.9939  144.8792  158.5489 C.ar    1  UNL1        0.0205
      6 C         141.2439  143.6032  159.2968 C.ar    1  UNL1        0.0008
      7 C         141.6525  140.0072  159.0419 C.ar    1  UNL1        0.1387
      8 C         141.9025  138.7312  159.7898 C.ar    1  UNL1        0.0369
      9 C         141.2811  138.5182  161.1384 C.ar    1  UNL1        0.0031
     10 C         140.4098  139.5811  161.7390 C.ar    1  UNL1       -0.0001
     11 C         140.1598  140.8571  160.9911 C.ar    1  UNL1        0.0030
     12 C         140.7811  141.0701  159.6426 C.ar    1  UNL1        0.0352
     13 C         139.7884  139.3681  163.0875 C.ar    1  UNL1       -0.0039
     14 C         138.7567  140.3297  163.5982 C.ar    1  UNL1       -0.0003
     15 C         138.1353  140.1167  164.9468 C.ar    1  UNL1        0.0011
     16 C         138.5456  138.9421  165.7845 C.ar    1  UNL1        0.0137
     17 C         139.5772  137.9805  165.2737 C.ar    1  UNL1       -0.0031
     18 C         140.1986  138.1935  163.9252 C.ar    1  UNL1       -0.0218
     19 C         141.2303  137.2318  163.4145 C.3     1  UNL1        0.0310
     20 C         137.9242  138.7291  167.1330 C.2     1  UNL1        0.0729
     21 O         136.7435  137.8155  167.2789 O.co2   1  UNL1       -0.5446
     22 O         138.4835  139.4296  168.3357 O.co2   1  UNL1       -0.5446
     23 C         143.6706  140.7568  157.5875 C.3     1  UNL1        0.2525
     24 O         142.2739  140.2202  157.6934 O.3     1  UNL1       -0.4714
     25 C         139.7809  146.1741  156.6510 C.3     1  UNL1        0.4348
     26 F         139.5309  147.4500  155.9031 F       1  UNL1       -0.1644
     27 F         139.9668  145.4487  155.3513 F       1  UNL1       -0.1644
     28 F         139.5951  146.8994  157.9506 F       1  UNL1       -0.1644
     29 C         142.2068  143.5842  160.4468 C.3     1  UNL1        0.1236
     30 N         141.6936  143.4883  161.8531 N.am    1  UNL1       -0.2396
     31 C         140.6206  144.3428  162.4602 C.2     1  UNL1        0.4054
     32 O         139.8725  145.4431  161.7678 O.2     1  UNL1       -0.2262
     33 O         140.4272  143.9037  163.8815 O.3     1  UNL1       -0.4320
     34 C         141.3807  142.7778  164.1526 C.3     1  UNL1        0.2107
     35 C         142.1633  142.5211  162.8990 C.3     1  UNL1        0.1232
     36 C         143.2286  141.4801  162.7222 C.3     1  UNL1        0.0258
     37 C         141.5260  142.0385  165.4495 C.ar    1  UNL1        0.0189
     38 C         142.3022  140.7559  165.4990 C.ar    1  UNL1        0.0031
     39 C         142.4475  140.0166  166.7959 C.ar    1  UNL1        0.0712
     40 C         141.8165  140.5598  168.0436 C.ar    1  UNL1        0.0077
     41 C         141.0403  141.8424  167.9943 C.ar    1  UNL1        0.0712
     42 C         140.8950  142.5817  166.6973 C.ar    1  UNL1        0.0031
     43 C         143.2237  138.7340  166.8452 C.3     1  UNL1        0.4186
     44 F         143.9999  137.4514  166.8946 F       1  UNL1       -0.1659
     45 F         142.9539  138.6273  168.3169 F       1  UNL1       -0.1659
     46 F         143.4935  138.8407  165.3735 F       1  UNL1       -0.1659
     47 C         140.4093  142.3857  169.2421 C.3     1  UNL1        0.4186
     48 F         139.7784  142.9289  170.4898 F       1  UNL1       -0.1659
     49 F         140.1304  143.6802  168.5374 F       1  UNL1       -0.1659
     50 F         140.6882  141.0912  169.9467 F       1  UNL1       -0.1659
@<TRIPOS>UNITY_ATOM_ATTR
21 1
charge -1
@<TRIPOS>BOND
     1    23    24    1
     2    24     7    1
     3     7     8   ar
     4     8     9   ar
     5     9    10   ar
     6    10    13    1
     7    13    14   ar
     8    14    15   ar
     9    15    16   ar
    10    16    20    1
    11    20    21   ar
    12    20    22   ar
    13    16    17   ar
    14    17    18   ar
    15    18    19    1
    16    10    11   ar
    17    11    12   ar
    18    12     1    1
    19     1     2   ar
    20     2     3   ar
    21     3     4   ar
    22     4    25    1
    23    25    26    1
    24    25    27    1
    25    25    28    1
    26     4     5   ar
    27     5     6   ar
    28     6    29    1
    29    29    30    1
    30    30    31   am
    31    31    32    2
    32    31    33    1
    33    33    34    1
    34    34    37    1
    35    37    38   ar
    36    38    39   ar
    37    39    43    1
    38    43    44    1
    39    43    45    1
    40    43    46    1
    41    39    40   ar
    42    40    41   ar
    43    41    47    1
    44    47    48    1
    45    47    49    1
    46    47    50    1
    47    41    42   ar
    48    34    35    1
    49    35    36    1
    50    12     7   ar
    51     6     1   ar
    52    35    30    1
    53    18    13   ar
    54    42    37   ar
@<TRIPOS>MOLECULE
*****
 50 54 0 0 0
SMALL
GASTEIGER

@<TRIPOS>ATOM
      1 C         141.9364  142.8203  159.4971 C.ar    1  UNL1        0.0197
      2 C         142.9624  143.6274  158.7583 C.ar    1  UNL1        0.0986
      3 N         142.5315  144.7614  157.8761 N.ar    1  UNL1       -0.2399
      4 C         141.0745  145.0883  157.7327 C.ar    1  UNL1        0.1524
      5 C         140.0486  144.2812  158.4715 C.ar    1  UNL1        0.0205
      6 C         140.4795  143.1471  159.3537 C.ar    1  UNL1        0.0008
      7 C         142.6995  140.3527  159.7782 C.ar    1  UNL1        0.1387
      8 C         143.1305  139.2188  160.6604 C.ar    1  UNL1        0.0369
      9 C         143.2293  139.4183  162.1438 C.ar    1  UNL1        0.0031
     10 C         142.8972  140.7518  162.7450 C.ar    1  UNL1       -0.0001
     11 C         142.4662  141.8858  161.8627 C.ar    1  UNL1        0.0030
     12 C         142.3674  141.6862  160.3794 C.ar    1  UNL1        0.0352
     13 C         142.9960  140.9514  164.2283 C.ar    1  UNL1       -0.0039
     14 C         143.5016  142.2522  164.7781 C.ar    1  UNL1       -0.0003
     15 C         143.6004  142.4517  166.2615 C.ar    1  UNL1        0.0011
     16 C         143.1936  141.3505  167.1951 C.ar    1  UNL1        0.0137
     17 C         142.6880  140.0497  166.6454 C.ar    1  UNL1       -0.0031
     18 C         142.5892  139.8501  165.1620 C.ar    1  UNL1       -0.0218
     19 C         142.0835  138.5493  164.6123 C.3     1  UNL1        0.0310
     20 C         143.2924  141.5500  168.6785 C.2     1  UNL1        0.0729
     21 O         143.1724  140.3749  169.6030 O.co2   1  UNL1       -0.5446
     22 O         143.5113  142.9246  169.2374 O.co2   1  UNL1       -0.5446
     23 C         143.8351  140.2200  157.4452 C.3     1  UNL1        0.2525
     24 O         142.6007  140.1532  158.2948 O.3     1  UNL1       -0.4714
     25 C         140.6436  146.2223  156.8505 C.3     1  UNL1        0.4348
     26 F         140.2127  147.3563  155.9683 F       1  UNL1       -0.1644
     27 F         141.6683  145.8193  155.8319 F       1  UNL1       -0.1644
     28 F         139.6190  146.6254  157.8690 F       1  UNL1       -0.1644
     29 C         139.4536  142.3400  160.0925 C.3     1  UNL1        0.1236
     30 N         139.3051  142.4939  161.5773 N.am    1  UNL1       -0.2396
     31 C         139.1200  143.7865  162.3155 C.2     1  UNL1        0.4054
     32 O         139.0507  145.1520  161.6986 O.2     1  UNL1       -0.2262
     33 O         139.0162  143.4737  163.7789 O.3     1  UNL1       -0.4320
     34 C         139.1373  141.9878  163.9450 C.3     1  UNL1        0.2107
     35 C         139.3158  141.3823  162.5844 C.3     1  UNL1        0.1232
     36 C         139.4768  139.9217  162.2836 C.3     1  UNL1        0.0258
     37 C         139.0883  141.2391  165.2438 C.ar    1  UNL1        0.0189
     38 C         138.5316  139.8468  165.2864 C.ar    1  UNL1        0.0031
     39 C         138.4827  139.0980  166.5851 C.ar    1  UNL1        0.0712
     40 C         138.9905  139.7414  167.8414 C.ar    1  UNL1        0.0077
     41 C         139.5473  141.1337  167.7989 C.ar    1  UNL1        0.0712
     42 C         139.5961  141.8824  166.5000 C.ar    1  UNL1        0.0031
     43 C         137.9260  137.7058  166.6276 C.3     1  UNL1        0.4186
     44 F         137.3693  136.3136  166.6702 F       1  UNL1       -0.1659
     45 F         136.9981  138.1107  167.7345 F       1  UNL1       -0.1659
     46 F         138.8539  137.3009  165.5207 F       1  UNL1       -0.1659
     47 C         140.0551  141.7770  169.0551 C.3     1  UNL1        0.4186
     48 F         140.5628  142.4204  170.3114 F       1  UNL1       -0.1659
     49 F         139.7656  140.5178  169.8170 F       1  UNL1       -0.1659
     50 F         140.3445  143.0363  168.2932 F       1  UNL1       -0.1659
@<TRIPOS>UNITY_ATOM_ATTR
21 1
charge -1
@<TRIPOS>BOND
     1    23    24    1
     2    24     7    1
     3     7     8   ar
     4     8     9   ar
     5     9    10   ar
     6    10    13    1
     7    13    14   ar
     8    14    15   ar
     9    15    16   ar
    10    16    20    1
    11    20    21   ar
    12    20    22   ar
    13    16    17   ar
    14    17    18   ar
    15    18    19    1
    16    10    11   ar
    17    11    12   ar
    18    12     1    1
    19     1     2   ar
    20     2     3   ar
    21     3     4   ar
    22     4    25    1
    23    25    26    1
    24    25    27    1
    25    25    28    1
    26     4     5   ar
    27     5     6   ar
    28     6    29    1
    29    29    30    1
    30    30    31   am
    31    31    32    2
    32    31    33    1
    33    33    34    1
    34    34    37    1
    35    37    38   ar
    36    38    39   ar
    37    39    43    1
    38    43    44    1
    39    43    45    1
    40    43    46    1
    41    39    40   ar
    42    40    41   ar
    43    41    47    1
    44    47    48    1
    45    47    49    1
    46    47    50    1
    47    41    42   ar
    48    34    35    1
    49    35    36    1
    50    12     7   ar
    51     6     1   ar
    52    35    30    1
    53    18    13   ar
    54    42    37   ar
@<TRIPOS>MOLECULE
*****
 50 54 0 0 0
SMALL
GASTEIGER

@<TRIPOS>ATOM
      1 C         141.8863  142.7995  159.4856 C.ar    1  UNL1        0.0197
      2 C         142.9234  143.5876  158.7419 C.ar    1  UNL1        0.0986
      3 N         142.5096  144.7320  157.8650 N.ar    1  UNL1       -0.2399
      4 C         141.0586  145.0884  157.7318 C.ar    1  UNL1        0.1524
      5 C         140.0215  144.3002  158.4755 C.ar    1  UNL1        0.0205
      6 C         140.4353  143.1558  159.3525 C.ar    1  UNL1        0.0008
      7 C         142.5990  140.3158  159.7567 C.ar    1  UNL1        0.1387
      8 C         143.0129  139.1714  160.6336 C.ar    1  UNL1        0.0369
      9 C         143.1279  139.3662  162.1164 C.ar    1  UNL1        0.0031
     10 C         142.8290  140.7054  162.7223 C.ar    1  UNL1       -0.0001
     11 C         142.4152  141.8498  161.8454 C.ar    1  UNL1        0.0030
     12 C         142.3002  141.6550  160.3626 C.ar    1  UNL1        0.0352
     13 C         142.9440  140.9003  164.2052 C.ar    1  UNL1       -0.0039
     14 C         143.4385  142.2057  164.7540 C.ar    1  UNL1       -0.0003
     15 C         143.5535  142.4006  166.2368 C.ar    1  UNL1        0.0011
     16 C         143.1741  141.2899  167.1709 C.ar    1  UNL1        0.0137
     17 C         142.6796  139.9845  166.6221 C.ar    1  UNL1       -0.0031
     18 C         142.5646  139.7896  165.1392 C.ar    1  UNL1       -0.0218
     19 C         142.0701  138.4841  164.5904 C.3     1  UNL1        0.0310
     20 C         143.2891  141.4847  168.6537 C.2     1  UNL1        0.0729
     21 O         143.1796  140.3067  169.5757 O.co2   1  UNL1       -0.5446
     22 O         143.5136  142.8577  169.2146 O.co2   1  UNL1       -0.5446
     23 C         142.4414  138.7356  157.7005 C.3     1  UNL1        0.2525
     24 O         142.4840  140.1210  158.2738 O.3     1  UNL1       -0.4714
     25 C         140.6448  146.2328  156.8549 C.3     1  UNL1        0.4348
     26 F         140.2310  147.3772  155.9780 F       1  UNL1       -0.1644
     27 F         141.6477  145.8058  155.8244 F       1  UNL1       -0.1644
     28 F         139.6419  146.6598  157.8853 F       1  UNL1       -0.1644
     29 C         139.3982  142.3676  160.0963 C.3     1  UNL1        0.1236
     30 N         139.2662  142.5170  161.5830 N.am    1  UNL1       -0.2396
     31 C         139.0977  143.8081  162.3278 C.2     1  UNL1        0.4054
     32 O         139.0318  145.1764  161.7168 O.2     1  UNL1       -0.2262
     33 O         139.0069  143.4906  163.7911 O.3     1  UNL1       -0.4320
     34 C         139.1191  142.0033  163.9505 C.3     1  UNL1        0.2107
     35 C         139.2794  141.4016  162.5858 C.3     1  UNL1        0.1232
     36 C         139.4269  139.9410  162.2780 C.3     1  UNL1        0.0258
     37 C         139.0783  141.2500  165.2469 C.ar    1  UNL1        0.0189
     38 C         139.5960  141.8881  166.5018 C.ar    1  UNL1        0.0031
     39 C         139.5552  141.1348  167.7982 C.ar    1  UNL1        0.0712
     40 C         138.9966  139.7433  167.8398 C.ar    1  UNL1        0.0077
     41 C         138.4788  139.1051  166.5849 C.ar    1  UNL1        0.0712
     42 C         138.5197  139.8585  165.2885 C.ar    1  UNL1        0.0031
     43 C         140.0729  141.7729  169.0531 C.3     1  UNL1        0.4186
     44 F         140.5907  142.4110  170.3079 F       1  UNL1       -0.1659
     45 F         140.3291  143.0449  168.3005 F       1  UNL1       -0.1659
     46 F         139.8168  140.5008  169.8057 F       1  UNL1       -0.1659
     47 C         137.9202  137.7136  166.6265 C.3     1  UNL1        0.4186
     48 F         137.3616  136.3222  166.6681 F       1  UNL1       -0.1659
     49 F         136.9701  138.1275  167.7110 F       1  UNL1       -0.1659
     50 F         138.8702  137.2998  165.5420 F       1  UNL1       -0.1659
@<TRIPOS>UNITY_ATOM_ATTR
21 1
charge -1
@<TRIPOS>BOND
     1    23    24    1
     2    24     7    1
     3     7     8   ar
     4     8     9   ar
     5     9    10   ar
     6    10    13    1
     7    13    14   ar
     8    14    15   ar
     9    15    16   ar
    10    16    20    1
    11    20    21   ar
    12    20    22   ar
    13    16    17   ar
    14    17    18   ar
    15    18    19    1
    16    10    11   ar
    17    11    12   ar
    18    12     1    1
    19     1     2   ar
    20     2     3   ar
    21     3     4   ar
    22     4    25    1
    23    25    26    1
    24    25    27    1
    25    25    28    1
    26     4     5   ar
    27     5     6   ar
    28     6    29    1
    29    29    30    1
    30    30    31   am
    31    31    32    2
    32    31    33    1
    33    33    34    1
    34    34    37    1
    35    37    38   ar
    36    38    39   ar
    37    39    43    1
    38    43    44    1
    39    43    45    1
    40    43    46    1
    41    39    40   ar
    42    40    41   ar
    43    41    47    1
    44    47    48    1
    45    47    49    1
    46    47    50    1
    47    41    42   ar
    48    34    35    1
    49    35    36    1
    50    12     7   ar
    51     6     1   ar
    52    35    30    1
    53    18    13   ar
    54    42    37   ar
@<TRIPOS>MOLECULE
*****
 50 54 0 0 0
SMALL
GASTEIGER

@<TRIPOS>ATOM
      1 C         140.3794  141.8537  158.7685 C.ar    1  UNL1        0.0197
      2 C         141.3126  141.8958  157.5949 C.ar    1  UNL1        0.0986
      3 N         141.4957  143.1716  156.8276 N.ar    1  UNL1       -0.2399
      4 C         140.7455  144.4054  157.2339 C.ar    1  UNL1        0.1524
      5 C         139.8123  144.3633  158.4075 C.ar    1  UNL1        0.0205
      6 C         139.6292  143.0874  159.1747 C.ar    1  UNL1        0.0008
      7 C         139.3065  139.4983  158.9946 C.ar    1  UNL1        0.1387
      8 C         139.1235  138.2225  159.7618 C.ar    1  UNL1        0.0369
      9 C         139.8302  138.0262  161.0703 C.ar    1  UNL1        0.0031
     10 C         140.7200  139.1057  161.6114 C.ar    1  UNL1       -0.0001
     11 C         140.9030  140.3815  160.8442 C.ar    1  UNL1        0.0030
     12 C         140.1963  140.5778  159.5357 C.ar    1  UNL1        0.0352
     13 C         141.4267  138.9094  162.9199 C.ar    1  UNL1       -0.0039
     14 C         141.0835  137.7361  163.7890 C.ar    1  UNL1       -0.0003
     15 C         141.7902  137.5398  165.0975 C.ar    1  UNL1        0.0011
     16 C         142.8402  138.5168  165.5368 C.ar    1  UNL1        0.0137
     17 C         143.1834  139.6901  164.6676 C.ar    1  UNL1       -0.0031
     18 C         142.4767  139.8864  163.3591 C.ar    1  UNL1       -0.0218
     19 C         142.8199  141.0598  162.4900 C.3     1  UNL1        0.0310
     20 C         143.5469  138.3206  166.8452 C.2     1  UNL1        0.0729
     21 O         143.1746  139.1590  168.0319 O.co2   1  UNL1       -0.5446
     22 O         144.6259  137.2858  166.9669 O.co2   1  UNL1       -0.5446
     23 C         139.1972  139.1511  156.4221 C.3     1  UNL1        0.2525
     24 O         138.5998  139.6946  157.6861 O.3     1  UNL1       -0.4714
     25 C         140.9286  145.6812  156.4666 C.3     1  UNL1        0.4348
     26 F         141.1117  146.9570  155.6994 F       1  UNL1       -0.1644
     27 F         140.2763  146.4449  157.5808 F       1  UNL1       -0.1644
     28 F         141.5809  144.9176  155.3525 F       1  UNL1       -0.1644
     29 C         138.6959  143.0453  160.3483 C.3     1  UNL1        0.1236
     30 N         139.2459  142.9580  161.7412 N.am    1  UNL1       -0.2396
     31 C         140.3154  143.8341  162.3232 C.2     1  UNL1        0.4054
     32 O         141.0226  144.9512  161.6148 O.2     1  UNL1       -0.2262
     33 O         140.5534  143.3968  163.7383 O.3     1  UNL1       -0.4320
     34 C         139.6311  142.2505  164.0306 C.3     1  UNL1        0.2107
     35 C         138.8230  141.9794  162.7963 C.3     1  UNL1        0.1232
     36 C         137.7759  140.9163  162.6439 C.3     1  UNL1        0.0258
     37 C         139.5339  141.5062  165.3292 C.ar    1  UNL1        0.0189
     38 C         138.7532  140.2275  165.4042 C.ar    1  UNL1        0.0031
     39 C         138.6560  139.4832  166.7028 C.ar    1  UNL1        0.0712
     40 C         139.3395  140.0174  167.9265 C.ar    1  UNL1        0.0077
     41 C         140.1202  141.2962  167.8516 C.ar    1  UNL1        0.0712
     42 C         140.2173  142.0405  166.5529 C.ar    1  UNL1        0.0031
     43 C         137.8754  138.2045  166.7777 C.3     1  UNL1        0.4186
     44 F         137.0948  136.9259  166.8527 F       1  UNL1       -0.1659
     45 F         138.4433  137.7803  165.4558 F       1  UNL1       -0.1659
     46 F         137.3074  138.6287  168.0997 F       1  UNL1       -0.1659
     47 C         140.8036  141.8304  169.0753 C.3     1  UNL1        0.4186
     48 F         141.4871  142.3647  170.2990 F       1  UNL1       -0.1659
     49 F         140.8893  140.4410  169.6340 F       1  UNL1       -0.1659
     50 F         140.7179  143.2198  168.5165 F       1  UNL1       -0.1659
@<TRIPOS>UNITY_ATOM_ATTR
21 1
charge -1
@<TRIPOS>BOND
     1    23    24    1
     2    24     7    1
     3     7     8   ar
     4     8     9   ar
     5     9    10   ar
     6    10    13    1
     7    13    14   ar
     8    14    15   ar
     9    15    16   ar
    10    16    20    1
    11    20    21   ar
    12    20    22   ar
    13    16    17   ar
    14    17    18   ar
    15    18    19    1
    16    10    11   ar
    17    11    12   ar
    18    12     1    1
    19     1     2   ar
    20     2     3   ar
    21     3     4   ar
    22     4    25    1
    23    25    26    1
    24    25    27    1
    25    25    28    1
    26     4     5   ar
    27     5     6   ar
    28     6    29    1
    29    29    30    1
    30    30    31   am
    31    31    32    2
    32    31    33    1
    33    33    34    1
    34    34    37    1
    35    37    38   ar
    36    38    39   ar
    37    39    43    1
    38    43    44    1
    39    43    45    1
    40    43    46    1
    41    39    40   ar
    42    40    41   ar
    43    41    47    1
    44    47    48    1
    45    47    49    1
    46    47    50    1
    47    41    42   ar
    48    34    35    1
    49    35    36    1
    50    12     7   ar
    51     6     1   ar
    52    35    30    1
    53    18    13   ar
    54    42    37   ar
@<TRIPOS>MOLECULE
*****
 50 54 0 0 0
SMALL
GASTEIGER

@<TRIPOS>ATOM
      1 C         140.4112  141.8762  158.7368 C.ar    1  UNL1        0.0197
      2 C         141.3492  141.9365  157.5678 C.ar    1  UNL1        0.0986
      3 N         141.5136  143.2166  156.8034 N.ar    1  UNL1       -0.2399
      4 C         140.7400  144.4364  157.2080 C.ar    1  UNL1        0.1524
      5 C         139.8020  144.3761  158.3770 C.ar    1  UNL1        0.0205
      6 C         139.6376  143.0960  159.1414 C.ar    1  UNL1        0.0008
      7 C         139.3927  139.4952  158.9457 C.ar    1  UNL1        0.1387
      8 C         139.2283  138.2151  159.7101 C.ar    1  UNL1        0.0369
      9 C         139.9180  138.0359  161.0300 C.ar    1  UNL1        0.0031
     10 C         140.7720  139.1368  161.5856 C.ar    1  UNL1       -0.0001
     11 C         140.9364  140.4168  160.8212 C.ar    1  UNL1        0.0030
     12 C         140.2468  140.5960  159.5012 C.ar    1  UNL1        0.0352
     13 C         141.4617  138.9576  162.9055 C.ar    1  UNL1       -0.0039
     14 C         141.1094  137.7938  163.7839 C.ar    1  UNL1       -0.0003
     15 C         141.7990  137.6146  165.1038 C.ar    1  UNL1        0.0011
     16 C         142.8410  138.5992  165.5454 C.ar    1  UNL1        0.0137
     17 C         143.1932  139.7629  164.6671 C.ar    1  UNL1       -0.0031
     18 C         142.5036  139.9421  163.3471 C.ar    1  UNL1       -0.0218
     19 C         142.8559  141.1059  162.4688 C.3     1  UNL1        0.0310
     20 C         143.5306  138.4199  166.8654 C.2     1  UNL1        0.0729
     21 O         144.6490  137.4293  166.9989 O.co2   1  UNL1       -0.5446
     22 O         143.1019  139.2314  168.0519 O.co2   1  UNL1       -0.5446
     23 C         139.2747  139.0461  156.3894 C.3     1  UNL1        0.2525
     24 O         138.7031  139.6744  157.6257 O.3     1  UNL1       -0.4714
     25 C         140.9045  145.7165  156.4436 C.3     1  UNL1        0.4348
     26 F         141.0689  146.9965  155.6792 F       1  UNL1       -0.1644
     27 F         140.0644  146.4314  157.4600 F       1  UNL1       -0.1644
     28 F         141.7446  145.0016  155.4272 F       1  UNL1       -0.1644
     29 C         138.6996  143.0357  160.3104 C.3     1  UNL1        0.1236
     30 N         139.2444  142.9563  161.7058 N.am    1  UNL1       -0.2396
     31 C         140.3016  143.8449  162.2913 C.2     1  UNL1        0.4054
     32 O         140.9997  144.9687  161.5843 O.2     1  UNL1       -0.2262
     33 O         140.5382  143.4123  163.7080 O.3     1  UNL1       -0.4320
     34 C         139.6272  142.2564  163.9980 C.3     1  UNL1        0.2107
     35 C         138.8276  141.9746  162.7605 C.3     1  UNL1        0.1232
     36 C         137.7929  140.8999  162.6051 C.3     1  UNL1        0.0258
     37 C         139.5325  141.5129  165.2972 C.ar    1  UNL1        0.0189
     38 C         140.2114  142.0521  166.5213 C.ar    1  UNL1        0.0031
     39 C         140.1166  141.3086  167.8205 C.ar    1  UNL1        0.0712
     40 C         139.3430  140.0257  167.8958 C.ar    1  UNL1        0.0077
     41 C         138.6640  139.4863  166.6717 C.ar    1  UNL1        0.0712
     42 C         138.7588  140.2300  165.3725 C.ar    1  UNL1        0.0031
     43 C         140.7955  141.8479  169.0445 C.3     1  UNL1        0.4186
     44 F         141.4744  142.3872  170.2685 F       1  UNL1       -0.1659
     45 F         140.8217  140.4702  169.6370 F       1  UNL1       -0.1659
     46 F         140.7694  143.2257  168.4520 F       1  UNL1       -0.1659
     47 C         137.8904  138.2035  166.7470 C.3     1  UNL1        0.4186
     48 F         137.1167  136.9206  166.8223 F       1  UNL1       -0.1659
     49 F         137.3248  138.6223  168.0716 F       1  UNL1       -0.1659
     50 F         138.4560  137.7846  165.4224 F       1  UNL1       -0.1659
@<TRIPOS>UNITY_ATOM_ATTR
21 1
charge -1
@<TRIPOS>BOND
     1    23    24    1
     2    24     7    1
     3     7     8   ar
     4     8     9   ar
     5     9    10   ar
     6    10    13    1
     7    13    14   ar
     8    14    15   ar
     9    15    16   ar
    10    16    20    1
    11    20    21   ar
    12    20    22   ar
    13    16    17   ar
    14    17    18   ar
    15    18    19    1
    16    10    11   ar
    17    11    12   ar
    18    12     1    1
    19     1     2   ar
    20     2     3   ar
    21     3     4   ar
    22     4    25    1
    23    25    26    1
    24    25    27    1
    25    25    28    1
    26     4     5   ar
    27     5     6   ar
    28     6    29    1
    29    29    30    1
    30    30    31   am
    31    31    32    2
    32    31    33    1
    33    33    34    1
    34    34    37    1
    35    37    38   ar
    36    38    39   ar
    37    39    43    1
    38    43    44    1
    39    43    45    1
    40    43    46    1
    41    39    40   ar
    42    40    41   ar
    43    41    47    1
    44    47    48    1
    45    47    49    1
    46    47    50    1
    47    41    42   ar
    48    34    35    1
    49    35    36    1
    50    12     7   ar
    51     6     1   ar
    52    35    30    1
    53    18    13   ar
    54    42    37   ar
@<TRIPOS>MOLECULE
*****
 50 54 0 0 0
SMALL
GASTEIGER

@<TRIPOS>ATOM
      1 C         142.0568  141.1880  158.9069 C.ar    1  UNL1        0.0197
      2 C         142.8246  140.1157  158.1923 C.ar    1  UNL1        0.0986
      3 N         144.2078  140.3957  157.6841 N.ar    1  UNL1       -0.2399
      4 C         144.8232  141.7481  157.8904 C.ar    1  UNL1        0.1524
      5 C         144.0554  142.8204  158.6050 C.ar    1  UNL1        0.0205
      6 C         142.6722  142.5403  159.1133 C.ar    1  UNL1        0.0008
      7 C         139.5001  140.9989  158.4853 C.ar    1  UNL1        0.1387
      8 C         138.1170  140.7188  158.9935 C.ar    1  UNL1        0.0369
      9 C         137.9072  140.3479  160.4317 C.ar    1  UNL1        0.0031
     10 C         139.0806  140.2570  161.3617 C.ar    1  UNL1       -0.0001
     11 C         140.4638  140.5371  160.8534 C.ar    1  UNL1        0.0030
     12 C         140.6735  140.9080  159.4152 C.ar    1  UNL1        0.0352
     13 C         138.8709  139.8861  162.7999 C.ar    1  UNL1       -0.0039
     14 C         138.1508  140.8270  163.7197 C.ar    1  UNL1       -0.0003
     15 C         137.9411  140.4561  165.1579 C.ar    1  UNL1        0.0011
     16 C         138.4514  139.1443  165.6763 C.ar    1  UNL1        0.0137
     17 C         139.1714  138.2034  164.7564 C.ar    1  UNL1       -0.0031
     18 C         139.3811  138.5743  163.3182 C.ar    1  UNL1       -0.0218
     19 C         140.1012  137.6333  162.3983 C.3     1  UNL1        0.0310
     20 C         138.2416  138.7734  167.1145 C.2     1  UNL1        0.0729
     21 O         137.2759  137.6837  167.4748 O.co2   1  UNL1       -0.5446
     22 O         138.9976  139.4921  168.1923 O.co2   1  UNL1       -0.5446
     23 C         139.5588  142.7970  156.6109 C.3     1  UNL1        0.2525
     24 O         139.7099  141.3698  157.0471 O.3     1  UNL1       -0.4714
     25 C         146.2064  142.0280  157.3822 C.3     1  UNL1        0.4348
     26 F         147.5896  142.3080  156.8739 F       1  UNL1       -0.1644
     27 F         146.0429  140.9555  156.3464 F       1  UNL1       -0.1644
     28 F         146.3699  143.1005  158.4180 F       1  UNL1       -0.1644
     29 C         141.9043  143.6126  159.8278 C.3     1  UNL1        0.1236
     30 N         141.4143  143.3790  161.2262 N.am    1  UNL1       -0.2396
     31 C         140.0897  143.8133  161.7802 C.2     1  UNL1        0.4054
     32 O         139.0228  144.5575  161.0334 O.2     1  UNL1       -0.2262
     33 O         140.0195  143.3728  163.2125 O.3     1  UNL1       -0.4320
     34 C         141.3006  142.6662  163.5434 C.3     1  UNL1        0.2107
     35 C         142.1626  142.6700  162.3158 C.3     1  UNL1        0.1232
     36 C         143.5324  142.0703  162.1985 C.3     1  UNL1        0.0258
     37 C         141.6572  142.0619  164.8691 C.ar    1  UNL1        0.0189
     38 C         142.2607  140.6900  164.9302 C.ar    1  UNL1        0.0031
     39 C         142.6172  140.0857  166.2559 C.ar    1  UNL1        0.0712
     40 C         142.3702  140.8533  167.5207 C.ar    1  UNL1        0.0077
     41 C         141.7667  142.2252  167.4598 C.ar    1  UNL1        0.0712
     42 C         141.4102  142.8294  166.1340 C.ar    1  UNL1        0.0031
     43 C         143.2207  138.7139  166.3168 C.3     1  UNL1        0.4186
     44 F         143.8243  137.3420  166.3778 F       1  UNL1       -0.1659
     45 F         143.1173  138.7349  167.8131 F       1  UNL1       -0.1659
     46 F         143.3242  138.6929  164.8205 F       1  UNL1       -0.1659
     47 C         141.5197  142.9928  168.7247 C.3     1  UNL1        0.4186
     48 F         141.2727  143.7603  169.9895 F       1  UNL1       -0.1659
     49 F         140.0909  143.2021  168.3186 F       1  UNL1       -0.1659
     50 F         142.9484  142.7834  169.1307 F       1  UNL1       -0.1659
@<TRIPOS>UNITY_ATOM_ATTR
21 1
charge -1
@<TRIPOS>BOND
     1    23    24    1
     2    24     7    1
     3     7     8   ar
     4     8     9   ar
     5     9    10   ar
     6    10    13    1
     7    13    14   ar
     8    14    15   ar
     9    15    16   ar
    10    16    20    1
    11    20    21   ar
    12    20    22   ar
    13    16    17   ar
    14    17    18   ar
    15    18    19    1
    16    10    11   ar
    17    11    12   ar
    18    12     1    1
    19     1     2   ar
    20     2     3   ar
    21     3     4   ar
    22     4    25    1
    23    25    26    1
    24    25    27    1
    25    25    28    1
    26     4     5   ar
    27     5     6   ar
    28     6    29    1
    29    29    30    1
    30    30    31   am
    31    31    32    2
    32    31    33    1
    33    33    34    1
    34    34    37    1
    35    37    38   ar
    36    38    39   ar
    37    39    43    1
    38    43    44    1
    39    43    45    1
    40    43    46    1
    41    39    40   ar
    42    40    41   ar
    43    41    47    1
    44    47    48    1
    45    47    49    1
    46    47    50    1
    47    41    42   ar
    48    34    35    1
    49    35    36    1
    50    12     7   ar
    51     6     1   ar
    52    35    30    1
    53    18    13   ar
    54    42    37   ar
@<TRIPOS>MOLECULE
*****
 50 54 0 0 0
SMALL
GASTEIGER

@<TRIPOS>ATOM
      1 C         140.6896  138.7079  158.1691 C.ar    1  UNL1        0.0197
      2 C         140.0391  137.6756  157.2967 C.ar    1  UNL1        0.0986
      3 N         140.8817  136.7867  156.4308 N.ar    1  UNL1       -0.2399
      4 C         142.3749  136.9300  156.4373 C.ar    1  UNL1        0.1524
      5 C         143.0254  137.9623  157.3098 C.ar    1  UNL1        0.0205
      6 C         142.1827  138.8513  158.1757 C.ar    1  UNL1        0.0008
      7 C         139.2031  140.8199  158.4522 C.ar    1  UNL1        0.1387
      8 C         138.3605  141.7088  159.3181 C.ar    1  UNL1        0.0369
      9 C         138.1617  141.3746  160.7669 C.ar    1  UNL1        0.0031
     10 C         138.8056  140.1516  161.3497 C.ar    1  UNL1       -0.0001
     11 C         139.6482  139.2628  160.4838 C.ar    1  UNL1        0.0030
     12 C         139.8470  139.5969  159.0351 C.ar    1  UNL1        0.0352
     13 C         138.6068  139.8175  162.7984 C.ar    1  UNL1       -0.0039
     14 C         139.0377  138.4811  163.3259 C.ar    1  UNL1       -0.0003
     15 C         138.8389  138.1470  164.7747 C.ar    1  UNL1        0.0011
     16 C         138.2092  139.1493  165.6959 C.ar    1  UNL1        0.0137
     17 C         137.7782  140.4857  165.1685 C.ar    1  UNL1       -0.0031
     18 C         137.9770  140.8198  163.7197 C.ar    1  UNL1       -0.0218
     19 C         137.5460  142.1563  163.1923 C.3     1  UNL1        0.0310
     20 C         138.0104  138.8152  167.1447 C.2     1  UNL1        0.0729
     21 O         138.8665  139.4678  168.1892 O.co2   1  UNL1       -0.5446
     22 O         136.9555  137.8284  167.5489 O.co2   1  UNL1       -0.5446
     23 C         138.3604  140.7688  155.9952 C.3     1  UNL1        0.2525
     24 O         139.4019  141.1540  157.0035 O.3     1  UNL1       -0.4714
     25 C         143.2174  136.0411  155.5714 C.3     1  UNL1        0.4348
     26 F         144.0600  135.1522  154.7055 F       1  UNL1       -0.1644
     27 F         142.7189  136.7570  154.3513 F       1  UNL1       -0.1644
     28 F         143.7160  135.3252  156.7916 F       1  UNL1       -0.1644
     29 C         142.8332  139.8836  159.0481 C.3     1  UNL1        0.1236
     30 N         142.7644  139.7550  160.5411 N.am    1  UNL1       -0.2396
     31 C         143.1668  138.5522  161.3418 C.2     1  UNL1        0.4054
     32 O         143.7087  137.2668  160.7903 O.2     1  UNL1       -0.2262
     33 O         142.9322  138.8604  162.7910 O.3     1  UNL1       -0.4320
     34 C         142.3848  140.2538  162.8858 C.3     1  UNL1        0.2107
     35 C         142.2811  140.8066  161.4953 C.3     1  UNL1        0.1232
     36 C         141.7818  142.1715  161.1240 C.3     1  UNL1        0.0258
     37 C         142.0074  140.9687  164.1492 C.ar    1  UNL1        0.0189
     38 C         142.5278  140.4835  165.4697 C.ar    1  UNL1        0.0031
     39 C         142.1504  141.1984  166.7331 C.ar    1  UNL1        0.0712
     40 C         141.2525  142.3986  166.6762 C.ar    1  UNL1        0.0077
     41 C         140.7319  142.8839  165.3557 C.ar    1  UNL1        0.0712
     42 C         141.1094  142.1688  164.0923 C.ar    1  UNL1        0.0031
     43 C         142.6709  140.7132  168.0536 C.3     1  UNL1        0.4186
     44 F         143.1915  140.2280  169.3740 F       1  UNL1       -0.1659
     45 F         143.3470  142.0342  168.2725 F       1  UNL1       -0.1659
     46 F         141.9948  139.3922  167.8347 F       1  UNL1       -0.1659
     47 C         139.8339  144.0840  165.2987 C.3     1  UNL1        0.4186
     48 F         138.9360  145.2842  165.2418 F       1  UNL1       -0.1659
     49 F         140.1030  144.2156  163.8290 F       1  UNL1       -0.1659
     50 F         139.5648  143.9524  166.7685 F       1  UNL1       -0.1659
@<TRIPOS>UNITY_ATOM_ATTR
21 1
charge -1
@<TRIPOS>BOND
     1    23    24    1
     2    24     7    1
     3     7     8   ar
     4     8     9   ar
     5     9    10   ar
     6    10    13    1
     7    13    14   ar
     8    14    15   ar
     9    15    16   ar
    10    16    20    1
    11    20    21   ar
    12    20    22   ar
    13    16    17   ar
    14    17    18   ar
    15    18    19    1
    16    10    11   ar
    17    11    12   ar
    18    12     1    1
    19     1     2   ar
    20     2     3   ar
    21     3     4   ar
    22     4    25    1
    23    25    26    1
    24    25    27    1
    25    25    28    1
    26     4     5   ar
    27     5     6   ar
    28     6    29    1
    29    29    30    1
    30    30    31   am
    31    31    32    2
    32    31    33    1
    33    33    34    1
    34    34    37    1
    35    37    38   ar
    36    38    39   ar
    37    39    43    1
    38    43    44    1
    39    43    45    1
    40    43    46    1
    41    39    40   ar
    42    40    41   ar
    43    41    47    1
    44    47    48    1
    45    47    49    1
    46    47    50    1
    47    41    42   ar
    48    34    35    1
    49    35    36    1
    50    12     7   ar
    51     6     1   ar
    52    35    30    1
    53    18    13   ar
    54    42    37   ar
@<TRIPOS>MOLECULE
*****
 50 54 0 0 0
SMALL
GASTEIGER

@<TRIPOS>ATOM
      1 C         142.0941  141.1350  158.8836 C.ar    1  UNL1        0.0197
      2 C         142.8809  140.0596  158.1947 C.ar    1  UNL1        0.0986
      3 N         144.2635  140.3484  157.6899 N.ar    1  UNL1       -0.2399
      4 C         144.8595  141.7127  157.8739 C.ar    1  UNL1        0.1524
      5 C         144.0727  142.7880  158.5628 C.ar    1  UNL1        0.0205
      6 C         142.6900  142.4992  159.0677 C.ar    1  UNL1        0.0008
      7 C         139.5416  140.9149  158.4521 C.ar    1  UNL1        0.1387
      8 C         138.1590  140.6260  158.9570 C.ar    1  UNL1        0.0369
      9 C         137.9462  140.2685  160.3981 C.ar    1  UNL1        0.0031
     10 C         139.1161  140.1997  161.3344 C.ar    1  UNL1       -0.0001
     11 C         140.4987  140.4886  160.8296 C.ar    1  UNL1        0.0030
     12 C         140.7114  140.8462  159.3884 C.ar    1  UNL1        0.0352
     13 C         138.9033  139.8422  162.7755 C.ar    1  UNL1       -0.0039
     14 C         138.0925  140.7424  163.6598 C.ar    1  UNL1       -0.0003
     15 C         137.8797  140.3848  165.1010 C.ar    1  UNL1        0.0011
     16 C         138.4778  139.1270  165.6578 C.ar    1  UNL1        0.0137
     17 C         139.2886  138.2268  164.7735 C.ar    1  UNL1       -0.0031
     18 C         139.5014  138.5843  163.3324 C.ar    1  UNL1       -0.0218
     19 C         140.3123  137.6840  162.4481 C.3     1  UNL1        0.0310
     20 C         138.2650  138.7694  167.0989 C.2     1  UNL1        0.0729
     21 O         138.9665  139.5437  168.1752 O.co2   1  UNL1       -0.5446
     22 O         137.3508  137.6376  167.4638 O.co2   1  UNL1       -0.5446
     23 C         139.6735  142.7050  156.5739 C.3     1  UNL1        0.2525
     24 O         139.7543  141.2725  157.0110 O.3     1  UNL1       -0.4714
     25 C         146.2421  142.0015  157.3691 C.3     1  UNL1        0.4348
     26 F         147.6247  142.2903  156.8643 F       1  UNL1       -0.1644
     27 F         146.4114  143.0472  158.4310 F       1  UNL1       -0.1644
     28 F         146.0728  140.9557  156.3072 F       1  UNL1       -0.1644
     29 C         141.9032  143.5746  159.7566 C.3     1  UNL1        0.1236
     30 N         141.3813  143.3495  161.1448 N.am    1  UNL1       -0.2396
     31 C         140.0449  143.7881  161.6660 C.2     1  UNL1        0.4054
     32 O         138.9958  144.5287  160.8908 O.2     1  UNL1       -0.2262
     33 O         139.9417  143.3561  163.0988 O.3     1  UNL1       -0.4320
     34 C         141.2144  142.6505  163.4630 C.3     1  UNL1        0.2107
     35 C         142.1041  142.6465  162.2553 C.3     1  UNL1        0.1232
     36 C         143.4757  142.0450  162.1726 C.3     1  UNL1        0.0258
     37 C         141.5402  142.0538  164.8000 C.ar    1  UNL1        0.0189
     38 C         141.1836  142.7904  166.0571 C.ar    1  UNL1        0.0031
     39 C         141.5094  142.1936  167.3941 C.ar    1  UNL1        0.0712
     40 C         142.1918  140.8603  167.4741 C.ar    1  UNL1        0.0077
     41 C         142.5485  140.1236  166.2170 C.ar    1  UNL1        0.0712
     42 C         142.2226  140.7204  164.8800 C.ar    1  UNL1        0.0031
     43 C         141.1527  142.9303  168.6512 C.3     1  UNL1        0.4186
     44 F         140.7961  143.6669  169.9082 F       1  UNL1       -0.1659
     45 F         140.0250  143.6101  167.9328 F       1  UNL1       -0.1659
     46 F         142.2805  142.2503  169.3696 F       1  UNL1       -0.1659
     47 C         143.2309  138.7902  166.2971 C.3     1  UNL1        0.4186
     48 F         143.9133  137.4569  166.3771 F       1  UNL1       -0.1659
     49 F         143.1363  138.8316  167.7935 F       1  UNL1       -0.1659
     50 F         143.3255  138.7488  164.8006 F       1  UNL1       -0.1659
@<TRIPOS>UNITY_ATOM_ATTR
21 1
charge -1
@<TRIPOS>BOND
     1    23    24    1
     2    24     7    1
     3     7     8   ar
     4     8     9   ar
     5     9    10   ar
     6    10    13    1
     7    13    14   ar
     8    14    15   ar
     9    15    16   ar
    10    16    20    1
    11    20    21   ar
    12    20    22   ar
    13    16    17   ar
    14    17    18   ar
    15    18    19    1
    16    10    11   ar
    17    11    12   ar
    18    12     1    1
    19     1     2   ar
    20     2     3   ar
    21     3     4   ar
    22     4    25    1
    23    25    26    1
    24    25    27    1
    25    25    28    1
    26     4     5   ar
    27     5     6   ar
    28     6    29    1
    29    29    30    1
    30    30    31   am
    31    31    32    2
    32    31    33    1
    33    33    34    1
    34    34    37    1
    35    37    38   ar
    36    38    39   ar
    37    39    43    1
    38    43    44    1
    39    43    45    1
    40    43    46    1
    41    39    40   ar
    42    40    41   ar
    43    41    47    1
    44    47    48    1
    45    47    49    1
    46    47    50    1
    47    41    42   ar
    48    34    35    1
    49    35    36    1
    50    12     7   ar
    51     6     1   ar
    52    35    30    1
    53    18    13   ar
    54    42    37   ar
