@<TRIPOS>MOLECULE
*****
 34 37 0 0 0
SMALL
GASTEIGER

@<TRIPOS>ATOM
      1 C         142.6003  138.0142  158.1829 C.ar    1  UNL1        0.0505
      2 C         142.6738  139.4397  157.7222 C.ar    1  UNL1        0.0148
      3 C         143.1488  140.5080  158.6618 C.ar    1  UNL1        0.0060
      4 C         143.5503  140.1508  160.0623 C.ar    1  UNL1        0.0553
      5 C         143.4767  138.7253  160.5230 C.ar    1  UNL1        0.0060
      6 C         143.0017  137.6570  159.5834 C.ar    1  UNL1        0.0148
      7 C         144.0253  141.2192  161.0019 C.ar    1  UNL1        0.2512
      8 N         145.0256  141.0417  162.1056 N.ar    1  UNL1       -0.1058
      9 N         145.2019  142.3654  162.7887 N.ar    1  UNL1       -0.0923
     10 C         144.3107  143.3611  162.1072 C.ar    1  UNL1        0.3086
     11 O         143.5835  142.6527  161.0029 O.2     1  UNL1       -0.4048
     12 N         144.1711  144.8106  162.4668 N.pl3   1  UNL1       -0.2871
     13 H         144.5463  145.5028  161.8758 H       1  UNL1        0.1512
     14 C         143.4598  145.2056  163.7270 C.3     1  UNL1        0.0912
     15 C         141.9610  145.1820  163.7812 C.3     1  UNL1        0.0227
     16 C         141.2544  144.0853  164.5214 C.3     1  UNL1        0.0191
     17 C         139.7566  144.0775  164.5999 C.3     1  UNL1        0.0723
     18 N         138.9624  143.1889  163.6889 N.3     1  UNL1       -0.2685
     19 C         138.2467  141.9933  164.2442 C.3     1  UNL1        0.1046
     20 C         137.4525  141.1047  163.3333 C.3     1  UNL1        0.1595
     21 O         137.3739  141.4118  161.8671 O.3     1  UNL1       -0.3508
     22 C         138.0896  142.6074  161.3120 C.3     1  UNL1        0.1595
     23 C         138.8838  143.4960  162.2228 C.3     1  UNL1        0.1046
     24 O         144.3917  137.0513  155.9775 O.2     1  UNL1       -0.2697
     25 C         143.0210  136.4643  156.1406 C.2     1  UNL1        0.2517
     26 N         142.1253  136.9458  157.2432 N.am    1  UNL1       -0.2803
     27 H         141.2256  136.5605  157.3502 H       1  UNL1        0.1552
     28 C         142.5460  135.3959  155.2009 C.ar    1  UNL1        0.0811
     29 C         142.2636  135.7303  153.7662 C.ar    1  UNL1        0.0068
     30 C         141.7886  134.6619  152.8266 C.ar    1  UNL1        0.0003
     31 C         141.5960  133.2591  153.3217 C.ar    1  UNL1        0.0023
     32 C         141.8784  132.9247  154.7564 C.ar    1  UNL1        0.0298
     33 C         142.3534  133.9931  155.6960 C.ar    1  UNL1        0.1445
     34 F         142.6358  133.6588  157.1308 F       1  UNL1       -0.2040
@<TRIPOS>BOND
     1    24    25    2
     2    25    26   am
     3    26     1    1
     4     1     2   ar
     5     2     3   ar
     6     3     4   ar
     7     4     7    1
     8     7     8   ar
     9     8     9   ar
    10     9    10   ar
    11    10    12    1
    12    12    14    1
    13    14    15    1
    14    15    16    1
    15    16    17    1
    16    17    18    1
    17    18    19    1
    18    19    20    1
    19    20    21    1
    20    21    22    1
    21    22    23    1
    22    10    11   ar
    23     4     5   ar
    24     5     6   ar
    25    25    28    1
    26    28    29   ar
    27    29    30   ar
    28    30    31   ar
    29    31    32   ar
    30    32    33   ar
    31    33    34    1
    32     6     1   ar
    33    33    28   ar
    34    11     7   ar
    35    23    18    1
    36    26    27    1
    37    12    13    1
@<TRIPOS>MOLECULE
*****
 34 37 0 0 0
SMALL
GASTEIGER

@<TRIPOS>ATOM
      1 C         141.3485  143.0557  164.1269 C.ar    1  UNL1        0.0505
      2 C         141.2202  144.5424  163.9750 C.ar    1  UNL1        0.0148
      3 C         141.1684  145.1547  162.6067 C.ar    1  UNL1        0.0060
      4 C         141.2449  144.2804  161.3903 C.ar    1  UNL1        0.0553
      5 C         141.3731  142.7936  161.5422 C.ar    1  UNL1        0.0060
      6 C         141.4249  142.1813  162.9105 C.ar    1  UNL1        0.0148
      7 C         141.1931  144.8928  160.0220 C.ar    1  UNL1        0.2512
      8 N         142.2766  144.8305  158.9865 N.ar    1  UNL1       -0.1058
      9 N         141.8019  145.5742  157.7735 N.ar    1  UNL1       -0.0923
     10 C         140.4249  146.0961  158.0592 C.ar    1  UNL1        0.3086
     11 O         140.0487  145.6750  159.4488 O.2     1  UNL1       -0.4048
     12 N         139.5737  146.8984  157.1201 N.pl3   1  UNL1       -0.2871
     13 H         138.8659  147.4834  157.4752 H       1  UNL1        0.1512
     14 C         139.8008  146.8093  155.6401 C.3     1  UNL1        0.0912
     15 C         139.1852  145.6907  154.8528 C.3     1  UNL1        0.0227
     16 C         137.7456  145.3274  155.0657 C.3     1  UNL1        0.0191
     17 C         137.1843  144.0866  154.4371 C.3     1  UNL1        0.0723
     18 N         136.8453  142.9007  155.2907 N.3     1  UNL1       -0.2685
     19 C         137.7303  142.5289  156.4433 C.3     1  UNL1        0.1046
     20 C         137.3914  141.3430  157.2971 C.3     1  UNL1        0.1595
     21 O         136.1674  140.5290  156.9982 O.3     1  UNL1       -0.3508
     22 C         135.2824  140.9009  155.8456 C.3     1  UNL1        0.1595
     23 C         135.6214  142.0868  154.9919 C.3     1  UNL1        0.1046
     24 O         143.9946  142.3835  165.3703 O.2     1  UNL1       -0.2697
     25 C         142.7233  142.1072  166.1170 C.2     1  UNL1        0.2517
     26 N         141.4003  142.4433  165.4953 N.am    1  UNL1       -0.2803
     27 H         140.5659  142.2619  165.9853 H       1  UNL1        0.1552
     28 C         142.7751  141.4948  167.4853 C.ar    1  UNL1        0.0811
     29 C         143.2696  142.3009  168.6496 C.ar    1  UNL1        0.0068
     30 C         143.3214  141.6885  170.0178 C.ar    1  UNL1        0.0003
     31 C         142.8787  140.2699  170.2218 C.ar    1  UNL1        0.0023
     32 C         142.3842  139.4637  169.0576 C.ar    1  UNL1        0.0298
     33 C         142.3324  140.0762  167.6893 C.ar    1  UNL1        0.1445
     34 F         141.8380  139.2700  166.5250 F       1  UNL1       -0.2040
@<TRIPOS>BOND
     1    24    25    2
     2    25    26   am
     3    26     1    1
     4     1     2   ar
     5     2     3   ar
     6     3     4   ar
     7     4     7    1
     8     7     8   ar
     9     8     9   ar
    10     9    10   ar
    11    10    12    1
    12    12    14    1
    13    14    15    1
    14    15    16    1
    15    16    17    1
    16    17    18    1
    17    18    19    1
    18    19    20    1
    19    20    21    1
    20    21    22    1
    21    22    23    1
    22    10    11   ar
    23     4     5   ar
    24     5     6   ar
    25    25    28    1
    26    28    29   ar
    27    29    30   ar
    28    30    31   ar
    29    31    32   ar
    30    32    33   ar
    31    33    34    1
    32     6     1   ar
    33    33    28   ar
    34    11     7   ar
    35    23    18    1
    36    26    27    1
    37    12    13    1
@<TRIPOS>MOLECULE
*****
 34 37 0 0 0
SMALL
GASTEIGER

@<TRIPOS>ATOM
      1 C         138.4631  142.2192  161.6780 C.ar    1  UNL1        0.0505
      2 C         139.0512  140.8488  161.8393 C.ar    1  UNL1        0.0148
      3 C         139.0824  140.2005  163.1916 C.ar    1  UNL1        0.0060
      4 C         138.5255  140.9227  164.3826 C.ar    1  UNL1        0.0553
      5 C         137.9374  142.2931  164.2212 C.ar    1  UNL1        0.0060
      6 C         137.9062  142.9413  162.8689 C.ar    1  UNL1        0.0148
      7 C         138.5568  140.2743  165.7349 C.ar    1  UNL1        0.2512
      8 N         137.7185  139.1106  166.1743 N.ar    1  UNL1       -0.1058
      9 N         138.0753  138.7929  167.5962 N.ar    1  UNL1       -0.0923
     10 C         139.1342  139.7603  168.0355 C.ar    1  UNL1        0.3086
     11 O         139.4317  140.6758  166.8852 O.2     1  UNL1       -0.4048
     12 N         139.7819  139.8044  169.3878 N.pl3   1  UNL1       -0.2871
     13 H         139.2640  139.5637  170.1897 H       1  UNL1        0.1512
     14 C         141.2186  140.2153  169.5183 C.3     1  UNL1        0.0912
     15 C         141.5780  141.6691  169.6048 C.3     1  UNL1        0.0227
     16 C         142.5905  142.2487  168.6620 C.3     1  UNL1        0.0191
     17 C         142.7706  141.6543  167.2967 C.3     1  UNL1        0.0723
     18 N         142.7639  142.5401  166.0861 N.3     1  UNL1       -0.2685
     19 C         144.0578  143.0434  165.5182 C.3     1  UNL1        0.1046
     20 C         144.0513  143.9292  164.3076 C.3     1  UNL1        0.1595
     21 O         142.7509  144.3116  163.6650 O.3     1  UNL1       -0.3508
     22 C         141.4571  143.8081  164.2331 C.3     1  UNL1        0.1595
     23 C         141.4637  142.9224  165.4436 C.3     1  UNL1        0.1046
     24 O         141.0127  143.1557  160.4041 O.2     1  UNL1       -0.2697
     25 C         139.7066  143.3358  159.6888 C.2     1  UNL1        0.2517
     26 N         138.4318  142.8675  160.3256 N.am    1  UNL1       -0.2803
     27 H         137.5746  142.9857  159.8561 H       1  UNL1        0.1552
     28 C         139.6753  143.9841  158.3364 C.ar    1  UNL1        0.0811
     29 C         138.9112  143.3443  157.2154 C.ar    1  UNL1        0.0068
     30 C         138.8800  143.9926  155.8632 C.ar    1  UNL1        0.0003
     31 C         139.6129  145.2808  155.6319 C.ar    1  UNL1        0.0023
     32 C         140.3771  145.9206  156.7529 C.ar    1  UNL1        0.0298
     33 C         140.4083  145.2722  158.1051 C.ar    1  UNL1        0.1445
     34 F         141.1725  145.9120  159.2262 F       1  UNL1       -0.2040
@<TRIPOS>BOND
     1    24    25    2
     2    25    26   am
     3    26     1    1
     4     1     2   ar
     5     2     3   ar
     6     3     4   ar
     7     4     7    1
     8     7     8   ar
     9     8     9   ar
    10     9    10   ar
    11    10    12    1
    12    12    14    1
    13    14    15    1
    14    15    16    1
    15    16    17    1
    16    17    18    1
    17    18    19    1
    18    19    20    1
    19    20    21    1
    20    21    22    1
    21    22    23    1
    22    10    11   ar
    23     4     5   ar
    24     5     6   ar
    25    25    28    1
    26    28    29   ar
    27    29    30   ar
    28    30    31   ar
    29    31    32   ar
    30    32    33   ar
    31    33    34    1
    32     6     1   ar
    33    33    28   ar
    34    11     7   ar
    35    23    18    1
    36    26    27    1
    37    12    13    1
@<TRIPOS>MOLECULE
*****
 34 37 0 0 0
SMALL
GASTEIGER

@<TRIPOS>ATOM
      1 C         142.6965  137.9961  158.3761 C.ar    1  UNL1        0.0505
      2 C         142.6751  139.4291  157.9334 C.ar    1  UNL1        0.0148
      3 C         143.1338  140.5095  158.8673 C.ar    1  UNL1        0.0060
      4 C         143.6140  140.1569  160.2439 C.ar    1  UNL1        0.0553
      5 C         143.6354  138.7239  160.6866 C.ar    1  UNL1        0.0060
      6 C         143.1767  137.6435  159.7527 C.ar    1  UNL1        0.0148
      7 C         144.0728  141.2374  161.1778 C.ar    1  UNL1        0.2512
      8 N         145.0645  141.0775  162.2918 N.ar    1  UNL1       -0.1058
      9 N         145.2250  142.4087  162.9642 N.ar    1  UNL1       -0.0923
     10 C         144.3325  143.3914  162.2657 C.ar    1  UNL1        0.3086
     11 O         143.6204  142.6675  161.1617 O.2     1  UNL1       -0.4048
     12 N         144.1790  144.8431  162.6107 N.pl3   1  UNL1       -0.2871
     13 H         144.6786  145.5246  162.1055 H       1  UNL1        0.1512
     14 C         143.2645  145.2565  163.7254 C.3     1  UNL1        0.0912
     15 C         141.7944  144.9723  163.6340 C.3     1  UNL1        0.0227
     16 C         141.2076  143.8094  164.3778 C.3     1  UNL1        0.0191
     17 C         142.0966  142.9077  165.1818 C.3     1  UNL1        0.0723
     18 N         142.2205  141.4578  164.8181 N.3     1  UNL1       -0.2685
     19 C         143.3105  140.6234  165.4229 C.3     1  UNL1        0.1046
     20 C         143.4345  139.1734  165.0592 C.3     1  UNL1        0.1595
     21 O         142.4684  138.5578  164.0909 O.3     1  UNL1       -0.3508
     22 C         141.3784  139.3922  163.4862 C.3     1  UNL1        0.1595
     23 C         141.2544  140.8422  163.8498 C.3     1  UNL1        0.1046
     24 O         144.3631  137.2682  155.9902 O.2     1  UNL1       -0.2697
     25 C         143.0710  136.5517  156.2493 C.2     1  UNL1        0.2517
     26 N         142.2377  136.9156  157.4422 N.am    1  UNL1       -0.2803
     27 H         141.3897  136.4453  157.6122 H       1  UNL1        0.1552
     28 C         142.6123  135.4711  155.3154 C.ar    1  UNL1        0.0811
     29 C         142.3410  135.7901  153.8750 C.ar    1  UNL1        0.0068
     30 C         141.8822  134.7096  152.9412 C.ar    1  UNL1        0.0003
     31 C         141.6948  133.3102  153.4477 C.ar    1  UNL1        0.0023
     32 C         141.9661  132.9913  154.8881 C.ar    1  UNL1        0.0298
     33 C         142.4248  134.0718  155.8219 C.ar    1  UNL1        0.1445
     34 F         142.6962  133.7529  157.2623 F       1  UNL1       -0.2040
@<TRIPOS>BOND
     1    24    25    2
     2    25    26   am
     3    26     1    1
     4     1     2   ar
     5     2     3   ar
     6     3     4   ar
     7     4     7    1
     8     7     8   ar
     9     8     9   ar
    10     9    10   ar
    11    10    12    1
    12    12    14    1
    13    14    15    1
    14    15    16    1
    15    16    17    1
    16    17    18    1
    17    18    19    1
    18    19    20    1
    19    20    21    1
    20    21    22    1
    21    22    23    1
    22    10    11   ar
    23     4     5   ar
    24     5     6   ar
    25    25    28    1
    26    28    29   ar
    27    29    30   ar
    28    30    31   ar
    29    31    32   ar
    30    32    33   ar
    31    33    34    1
    32     6     1   ar
    33    33    28   ar
    34    11     7   ar
    35    23    18    1
    36    26    27    1
    37    12    13    1
@<TRIPOS>MOLECULE
*****
 34 37 0 0 0
SMALL
GASTEIGER

@<TRIPOS>ATOM
      1 C         142.4261  138.6160  159.2751 C.ar    1  UNL1        0.0505
      2 C         143.6779  139.4079  159.5112 C.ar    1  UNL1        0.0148
      3 C         143.6071  140.7305  160.2151 C.ar    1  UNL1        0.0060
      4 C         142.2844  141.2613  160.6829 C.ar    1  UNL1        0.0553
      5 C         141.0326  140.4694  160.4468 C.ar    1  UNL1        0.0060
      6 C         141.1034  139.1467  159.7428 C.ar    1  UNL1        0.0148
      7 C         142.2136  142.5840  161.3868 C.ar    1  UNL1        0.2512
      8 N         143.2228  143.6895  161.2898 N.ar    1  UNL1       -0.1058
      9 N         142.7542  144.8222  162.1544 N.ar    1  UNL1       -0.0923
     10 C         141.4552  144.4167  162.7857 C.ar    1  UNL1        0.3086
     11 O         141.1212  143.0334  162.3113 O.2     1  UNL1       -0.4048
     12 N         140.6345  145.2484  163.7262 N.pl3   1  UNL1       -0.2871
     13 H         140.9087  146.1706  163.9349 H       1  UNL1        0.1512
     14 C         139.3961  144.6751  164.3487 C.3     1  UNL1        0.0912
     15 C         138.1715  144.4499  163.5122 C.3     1  UNL1        0.0227
     16 C         137.6181  143.0652  163.3503 C.3     1  UNL1        0.0191
     17 C         138.0379  141.9749  164.2910 C.3     1  UNL1        0.0723
     18 N         138.1948  140.5702  163.7889 N.3     1  UNL1       -0.2685
     19 C         137.7960  140.2269  162.3842 C.3     1  UNL1        0.1046
     20 C         137.9529  138.8221  161.8820 C.3     1  UNL1        0.1595
     21 O         138.5085  137.7607  162.7846 O.3     1  UNL1       -0.3508
     22 C         138.9072  138.1040  164.1893 C.3     1  UNL1        0.1595
     23 C         138.7503  139.5088  164.6914 C.3     1  UNL1        0.1046
     24 O         142.2910  138.5014  156.2803 O.2     1  UNL1       -0.2697
     25 C         142.4293  137.2360  157.0738 C.2     1  UNL1        0.2517
     26 N         142.4969  137.2932  158.5711 N.am    1  UNL1       -0.2803
     27 H         142.5877  136.4627  159.0919 H       1  UNL1        0.1552
     28 C         142.5001  135.9132  156.3698 C.ar    1  UNL1        0.0811
     29 C         143.7444  135.0806  156.4614 C.ar    1  UNL1        0.0068
     30 C         143.8151  133.7579  155.7575 C.ar    1  UNL1        0.0003
     31 C         142.6416  133.2679  154.9620 C.ar    1  UNL1        0.0023
     32 C         141.3974  134.1006  154.8704 C.ar    1  UNL1        0.0298
     33 C         141.3266  135.4233  155.5743 C.ar    1  UNL1        0.1445
     34 F         140.0823  136.2560  155.4828 F       1  UNL1       -0.2040
@<TRIPOS>BOND
     1    24    25    2
     2    25    26   am
     3    26     1    1
     4     1     2   ar
     5     2     3   ar
     6     3     4   ar
     7     4     7    1
     8     7     8   ar
     9     8     9   ar
    10     9    10   ar
    11    10    12    1
    12    12    14    1
    13    14    15    1
    14    15    16    1
    15    16    17    1
    16    17    18    1
    17    18    19    1
    18    19    20    1
    19    20    21    1
    20    21    22    1
    21    22    23    1
    22    10    11   ar
    23     4     5   ar
    24     5     6   ar
    25    25    28    1
    26    28    29   ar
    27    29    30   ar
    28    30    31   ar
    29    31    32   ar
    30    32    33   ar
    31    33    34    1
    32     6     1   ar
    33    33    28   ar
    34    11     7   ar
    35    23    18    1
    36    26    27    1
    37    12    13    1
@<TRIPOS>MOLECULE
*****
 34 37 0 0 0
SMALL
GASTEIGER

@<TRIPOS>ATOM
      1 C         143.3895  139.5943  164.2133 C.ar    1  UNL1        0.0505
      2 C         142.6121  138.4267  163.6820 C.ar    1  UNL1        0.0148
      3 C         142.5806  138.1553  162.2072 C.ar    1  UNL1        0.0060
      4 C         143.3263  139.0516  161.2635 C.ar    1  UNL1        0.0553
      5 C         144.1037  140.2192  161.7947 C.ar    1  UNL1        0.0060
      6 C         144.1353  140.4906  163.2696 C.ar    1  UNL1        0.0148
      7 C         143.2948  138.7802  159.7886 C.ar    1  UNL1        0.2512
      8 N         144.0066  139.5709  158.7311 N.ar    1  UNL1       -0.1058
      9 N         143.6976  138.9498  157.4012 N.ar    1  UNL1       -0.0923
     10 C         142.7948  137.7753  157.6366 C.ar    1  UNL1        0.3086
     11 O         142.5458  137.6704  159.1121 O.2     1  UNL1       -0.4048
     12 N         142.2386  136.8653  156.5818 N.pl3   1  UNL1       -0.2871
     13 H         141.4573  136.3003  156.7811 H       1  UNL1        0.1512
     14 C         142.8727  136.8162  155.2233 C.3     1  UNL1        0.0912
     15 C         142.4640  135.7572  154.2427 C.3     1  UNL1        0.0227
     16 C         141.9918  134.4213  154.7350 C.3     1  UNL1        0.0191
     17 C         142.8404  133.2023  154.5260 C.3     1  UNL1        0.0723
     18 N         143.5806  132.5965  155.6815 N.3     1  UNL1       -0.2685
     19 C         144.0686  133.4691  156.7998 C.3     1  UNL1        0.1046
     20 C         144.8089  132.8634  157.9554 C.3     1  UNL1        0.1595
     21 O         145.0611  131.3852  157.9927 O.3     1  UNL1       -0.3508
     22 C         144.5730  130.5128  156.8743 C.3     1  UNL1        0.1595
     23 C         143.8328  131.1184  155.7188 C.3     1  UNL1        0.1046
     24 O         141.0633  140.9469  165.5398 O.2     1  UNL1       -0.2697
     25 C         142.2580  140.5420  166.3514 C.2     1  UNL1        0.2517
     26 N         143.4211  139.8657  165.6882 N.am    1  UNL1       -0.2803
     27 H         144.2052  139.6000  166.2209 H       1  UNL1        0.1552
     28 C         142.2896  140.8134  167.8264 C.ar    1  UNL1        0.0811
     29 C         141.5146  139.9388  168.7667 C.ar    1  UNL1        0.0068
     30 C         141.5462  140.2102  170.2416 C.ar    1  UNL1        0.0003
     31 C         142.3529  141.3563  170.7761 C.ar    1  UNL1        0.0023
     32 C         143.1279  142.2310  169.8358 C.ar    1  UNL1        0.0298
     33 C         143.0963  141.9596  168.3609 C.ar    1  UNL1        0.1445
     34 F         143.8713  142.8342  167.4205 F       1  UNL1       -0.2040
@<TRIPOS>BOND
     1    24    25    2
     2    25    26   am
     3    26     1    1
     4     1     2   ar
     5     2     3   ar
     6     3     4   ar
     7     4     7    1
     8     7     8   ar
     9     8     9   ar
    10     9    10   ar
    11    10    12    1
    12    12    14    1
    13    14    15    1
    14    15    16    1
    15    16    17    1
    16    17    18    1
    17    18    19    1
    18    19    20    1
    19    20    21    1
    20    21    22    1
    21    22    23    1
    22    10    11   ar
    23     4     5   ar
    24     5     6   ar
    25    25    28    1
    26    28    29   ar
    27    29    30   ar
    28    30    31   ar
    29    31    32   ar
    30    32    33   ar
    31    33    34    1
    32     6     1   ar
    33    33    28   ar
    34    11     7   ar
    35    23    18    1
    36    26    27    1
    37    12    13    1
@<TRIPOS>MOLECULE
*****
 34 37 0 0 0
SMALL
GASTEIGER

@<TRIPOS>ATOM
      1 C         142.3899  142.1272  158.5998 C.ar    1  UNL1        0.0505
      2 C         142.7049  142.3658  160.0468 C.ar    1  UNL1        0.0148
      3 C         141.6460  142.1586  161.0888 C.ar    1  UNL1        0.0060
      4 C         140.2723  141.7127  160.6839 C.ar    1  UNL1        0.0553
      5 C         139.9573  141.4741  159.2369 C.ar    1  UNL1        0.0060
      6 C         141.0161  141.6813  158.1949 C.ar    1  UNL1        0.0148
      7 C         139.2134  141.5055  161.7261 C.ar    1  UNL1        0.2512
      8 N         137.8131  142.0411  161.6789 N.ar    1  UNL1       -0.1058
      9 N         137.1032  141.5929  162.9219 N.ar    1  UNL1       -0.0923
     10 C         138.0649  140.7803  163.7374 C.ar    1  UNL1        0.3086
     11 O         139.3690  140.7263  162.9983 O.2     1  UNL1       -0.4048
     12 N         137.7735  140.1350  165.0598 N.pl3   1  UNL1       -0.2871
     13 H         136.9059  140.2852  165.5003 H       1  UNL1        0.1512
     14 C         138.8040  139.2611  165.7111 C.3     1  UNL1        0.0912
     15 C         139.0275  137.8646  165.2111 C.3     1  UNL1        0.0227
     16 C         140.3617  137.4743  164.6477 C.3     1  UNL1        0.0191
     17 C         141.5627  138.3375  164.8970 C.3     1  UNL1        0.0723
     18 N         142.4661  138.7125  163.7598 N.3     1  UNL1       -0.2685
     19 C         143.4845  139.7992  163.9380 C.3     1  UNL1        0.1046
     20 C         144.3880  140.1743  162.8008 C.3     1  UNL1        0.1595
     21 O         144.2729  139.4626  161.4854 O.3     1  UNL1       -0.3508
     22 C         143.2544  138.3759  161.3073 C.3     1  UNL1        0.1595
     23 C         142.3510  138.0009  162.4444 C.3     1  UNL1        0.1046
     24 O         144.4120  139.9760  158.0674 O.2     1  UNL1       -0.2697
     25 C         144.4598  141.2588  157.2915 C.2     1  UNL1        0.2517
     26 N         143.4487  142.3344  157.5577 N.am    1  UNL1       -0.2803
     27 H         143.4801  143.1764  157.0484 H       1  UNL1        0.1552
     28 C         145.5186  141.4661  156.2493 C.ar    1  UNL1        0.0811
     29 C         145.3599  140.8576  154.8875 C.ar    1  UNL1        0.0068
     30 C         146.4187  141.0649  153.8455 C.ar    1  UNL1        0.0003
     31 C         147.6362  141.8806  154.1652 C.ar    1  UNL1        0.0023
     32 C         147.7950  142.4890  155.5270 C.ar    1  UNL1        0.0298
     33 C         146.7361  142.2818  156.5691 C.ar    1  UNL1        0.1445
     34 F         146.8948  142.8902  157.9310 F       1  UNL1       -0.2040
@<TRIPOS>BOND
     1    24    25    2
     2    25    26   am
     3    26     1    1
     4     1     2   ar
     5     2     3   ar
     6     3     4   ar
     7     4     7    1
     8     7     8   ar
     9     8     9   ar
    10     9    10   ar
    11    10    12    1
    12    12    14    1
    13    14    15    1
    14    15    16    1
    15    16    17    1
    16    17    18    1
    17    18    19    1
    18    19    20    1
    19    20    21    1
    20    21    22    1
    21    22    23    1
    22    10    11   ar
    23     4     5   ar
    24     5     6   ar
    25    25    28    1
    26    28    29   ar
    27    29    30   ar
    28    30    31   ar
    29    31    32   ar
    30    32    33   ar
    31    33    34    1
    32     6     1   ar
    33    33    28   ar
    34    11     7   ar
    35    23    18    1
    36    26    27    1
    37    12    13    1
@<TRIPOS>MOLECULE
*****
 34 37 0 0 0
SMALL
GASTEIGER

@<TRIPOS>ATOM
      1 C         143.3713  140.1734  158.5101 C.ar    1  UNL1        0.0505
      2 C         143.7527  139.9318  159.9405 C.ar    1  UNL1        0.0148
      3 C         142.6903  139.8474  160.9960 C.ar    1  UNL1        0.0060
      4 C         141.2464  140.0045  160.6210 C.ar    1  UNL1        0.0553
      5 C         140.8650  140.2461  159.1906 C.ar    1  UNL1        0.0060
      6 C         141.9274  140.3305  158.1352 C.ar    1  UNL1        0.0148
      7 C         140.1840  139.9200  161.6766 C.ar    1  UNL1        0.2512
      8 N         139.7544  138.6768  162.3976 N.ar    1  UNL1       -0.1058
      9 N         138.6695  139.0523  163.3631 N.ar    1  UNL1       -0.0923
     10 C         138.4287  140.5277  163.2387 C.ar    1  UNL1        0.3086
     11 O         139.3647  141.0639  162.1964 O.2     1  UNL1       -0.4048
     12 N         137.4276  141.3265  164.0196 N.pl3   1  UNL1       -0.2871
     13 H         136.5349  140.9537  164.2020 H       1  UNL1        0.1512
     14 C         137.7866  142.6933  164.5224 C.3     1  UNL1        0.0912
     15 C         137.5457  143.8969  163.6601 C.3     1  UNL1        0.0227
     16 C         138.6412  144.4195  162.7787 C.3     1  UNL1        0.0191
     17 C         139.8553  145.0552  163.3883 C.3     1  UNL1        0.0723
     18 N         141.2212  144.7108  162.8728 N.3     1  UNL1       -0.2685
     19 C         142.4407  145.1653  163.6185 C.3     1  UNL1        0.1046
     20 C         143.8067  144.8209  163.1031 C.3     1  UNL1        0.1595
     21 O         143.9531  144.0221  161.8419 O.3     1  UNL1       -0.3508
     22 C         142.7334  143.5676  161.0963 C.3     1  UNL1        0.1595
     23 C         141.3675  143.9120  161.6118 C.3     1  UNL1        0.1046
     24 O         144.4541  142.8459  157.6820 O.2     1  UNL1       -0.2697
     25 C         144.9751  141.5941  157.0405 C.2     1  UNL1        0.2517
     26 N         144.4338  140.2579  157.4545 N.am    1  UNL1       -0.2803
     27 H         144.7758  139.4363  157.0335 H       1  UNL1        0.1552
     28 C         146.0376  141.6786  155.9850 C.ar    1  UNL1        0.0811
     29 C         145.7689  141.1515  154.6066 C.ar    1  UNL1        0.0068
     30 C         146.8313  141.2360  153.5511 C.ar    1  UNL1        0.0003
     31 C         148.1624  141.8475  153.8740 C.ar    1  UNL1        0.0023
     32 C         148.4311  142.3746  155.2524 C.ar    1  UNL1        0.0298
     33 C         147.3686  142.2901  156.3079 C.ar    1  UNL1        0.1445
     34 F         147.6373  142.8171  157.6864 F       1  UNL1       -0.2040
@<TRIPOS>BOND
     1    24    25    2
     2    25    26   am
     3    26     1    1
     4     1     2   ar
     5     2     3   ar
     6     3     4   ar
     7     4     7    1
     8     7     8   ar
     9     8     9   ar
    10     9    10   ar
    11    10    12    1
    12    12    14    1
    13    14    15    1
    14    15    16    1
    15    16    17    1
    16    17    18    1
    17    18    19    1
    18    19    20    1
    19    20    21    1
    20    21    22    1
    21    22    23    1
    22    10    11   ar
    23     4     5   ar
    24     5     6   ar
    25    25    28    1
    26    28    29   ar
    27    29    30   ar
    28    30    31   ar
    29    31    32   ar
    30    32    33   ar
    31    33    34    1
    32     6     1   ar
    33    33    28   ar
    34    11     7   ar
    35    23    18    1
    36    26    27    1
    37    12    13    1
@<TRIPOS>MOLECULE
*****
 34 37 0 0 0
SMALL
GASTEIGER

@<TRIPOS>ATOM
      1 C         140.0552  143.8319  161.3672 C.ar    1  UNL1        0.0505
      2 C         139.5926  144.6760  162.5176 C.ar    1  UNL1        0.0148
      3 C         140.0518  144.3619  163.9105 C.ar    1  UNL1        0.0060
      4 C         140.9736  143.2037  164.1532 C.ar    1  UNL1        0.0553
      5 C         141.4362  142.3596  163.0028 C.ar    1  UNL1        0.0060
      6 C         140.9770  142.6737  161.6098 C.ar    1  UNL1        0.0148
      7 C         141.4328  142.8896  165.5462 C.ar    1  UNL1        0.2512
      8 N         142.8292  142.5224  165.9525 N.ar    1  UNL1       -0.1058
      9 N         142.8357  142.2935  167.4349 N.ar    1  UNL1       -0.0923
     10 C         141.4431  142.5192  167.9448 C.ar    1  UNL1        0.3086
     11 O         140.5761  142.8877  166.7775 O.2     1  UNL1       -0.4048
     12 N         140.9961  142.3978  169.3715 N.pl3   1  UNL1       -0.2871
     13 H         141.4205  142.9481  170.0689 H       1  UNL1        0.1512
     14 C         139.9025  141.4380  169.7357 C.3     1  UNL1        0.0912
     15 C         139.8705  140.0696  169.1222 C.3     1  UNL1        0.0227
     16 C         139.1783  139.8523  167.8094 C.3     1  UNL1        0.0191
     17 C         139.9749  139.4816  166.5938 C.3     1  UNL1        0.0723
     18 N         139.4274  139.7586  165.2250 N.3     1  UNL1       -0.2685
     19 C         138.3629  140.7990  165.0395 C.3     1  UNL1        0.1046
     20 C         137.8154  141.0761  163.6707 C.3     1  UNL1        0.1595
     21 O         138.3324  140.3128  162.4875 O.3     1  UNL1       -0.3508
     22 C         139.3969  139.2725  162.6730 C.3     1  UNL1        0.1595
     23 C         139.9444  138.9954  164.0418 C.3     1  UNL1        0.1046
     24 O         141.8762  145.2892  159.4803 O.2     1  UNL1       -0.2697
     25 C         140.5065  144.8746  159.0307 C.2     1  UNL1        0.2517
     26 N         139.5960  144.1459  159.9741 N.am    1  UNL1       -0.2803
     27 H         138.6971  143.8738  159.6790 H       1  UNL1        0.1552
     28 C         140.0473  145.1886  157.6376 C.ar    1  UNL1        0.0811
     29 C         139.8860  146.6157  157.2049 C.ar    1  UNL1        0.0068
     30 C         139.4269  146.9297  155.8119 C.ar    1  UNL1        0.0003
     31 C         139.1290  145.8166  154.8516 C.ar    1  UNL1        0.0023
     32 C         139.2903  144.3895  155.2843 C.ar    1  UNL1        0.0298
     33 C         139.7495  144.0755  156.6773 C.ar    1  UNL1        0.1445
     34 F         139.9108  142.6483  157.1100 F       1  UNL1       -0.2040
@<TRIPOS>BOND
     1    24    25    2
     2    25    26   am
     3    26     1    1
     4     1     2   ar
     5     2     3   ar
     6     3     4   ar
     7     4     7    1
     8     7     8   ar
     9     8     9   ar
    10     9    10   ar
    11    10    12    1
    12    12    14    1
    13    14    15    1
    14    15    16    1
    15    16    17    1
    16    17    18    1
    17    18    19    1
    18    19    20    1
    19    20    21    1
    20    21    22    1
    21    22    23    1
    22    10    11   ar
    23     4     5   ar
    24     5     6   ar
    25    25    28    1
    26    28    29   ar
    27    29    30   ar
    28    30    31   ar
    29    31    32   ar
    30    32    33   ar
    31    33    34    1
    32     6     1   ar
    33    33    28   ar
    34    11     7   ar
    35    23    18    1
    36    26    27    1
    37    12    13    1
