@<TRIPOS>MOLECULE
*****
 35 39 0 0 0
SMALL
GASTEIGER

@<TRIPOS>ATOM
      1 N         141.8016  141.0679  161.1604 N.ar    1  UNL1       -0.2900
      2 C         142.8809  140.7726  160.1614 C.ar    1  UNL1        0.0891
      3 C         143.3363  141.8405  159.2116 C.ar    1  UNL1        0.1098
      4 C         142.7125  143.2037  159.2608 C.ar    1  UNL1        0.2043
      5 O         143.1679  144.2716  158.3109 O.2     1  UNL1       -0.2863
      6 C         141.6332  143.4991  160.2598 C.ar    1  UNL1        0.0736
      7 C         141.0094  144.8623  160.3089 C.ar    1  UNL1        0.0078
      8 C         139.9302  145.1576  161.3079 C.ar    1  UNL1        0.0209
      9 C         139.4747  144.0897  162.2577 C.ar    1  UNL1        0.1005
     10 N         140.0985  142.7265  162.2086 N.ar    1  UNL1       -0.2263
     11 C         141.1778  142.4312  161.2096 C.ar    1  UNL1        0.1507
     12 C         140.8650  139.2018  164.5354 C.ar    1  UNL1        0.0029
     13 C         140.4353  137.8641  164.0098 C.ar    1  UNL1        0.0001
     14 C         140.4611  137.5945  162.5345 C.ar    1  UNL1        0.0015
     15 C         140.9165  138.6624  161.5847 C.ar    1  UNL1        0.0176
     16 C         141.3462  140.0000  162.1102 C.ar    1  UNL1        0.0654
     17 C         141.3204  140.2697  163.5856 C.ar    1  UNL1        0.0176
     18 C         140.7878  140.0108  168.9614 C.ar    1  UNL1        0.0830
     19 C         142.0967  139.7965  168.2608 C.ar    1  UNL1        0.0171
     20 C         142.1224  139.5268  166.7854 C.ar    1  UNL1        0.0028
     21 C         140.8392  139.4715  166.0107 C.ar    1  UNL1        0.0192
     22 C         139.5303  139.6858  166.7112 C.ar    1  UNL1        0.0985
     23 N         139.5045  139.9555  168.1865 N.ar    1  UNL1       -0.2459
     24 C         142.2534  140.1295  170.4903 C.3     1  UNL1        0.0355
     25 C         140.7620  140.2805  170.4367 C.3     1  UNL1        0.1232
     26 C         139.2706  140.4314  170.3830 C.3     1  UNL1        0.0355
     27 O         140.7362  140.5502  171.9120 O.3     1  UNL1       -0.3812
     28 H         141.6399  140.5163  172.2628 H       1  UNL1        0.2107
     29 C         144.4156  141.5451  158.2126 C.2     1  UNL1        0.2504
     30 O         144.5413  140.1690  157.6291 O.2     1  UNL1       -0.2700
     31 N         145.3691  142.6259  157.7970 N.am    1  UNL1       -0.3024
     32 H         145.2866  143.5291  158.1800 H       1  UNL1        0.1497
     33 C         146.4483  142.3305  156.7981 C.3     1  UNL1        0.0720
     34 C         147.8877  142.4004  156.3819 C.3     1  UNL1        0.0213
     35 C         146.8782  141.7489  155.4839 C.3     1  UNL1        0.0213
@<TRIPOS>BOND
     1    24    25    1
     2    25    26    1
     3    25    27    1
     4    25    18    1
     5    18    19   ar
     6    19    20   ar
     7    20    21   ar
     8    21    12    1
     9    12    13   ar
    10    13    14   ar
    11    14    15   ar
    12    15    16   ar
    13    16     1    1
    14     1     2   ar
    15     2     3   ar
    16     3    29    1
    17    29    30    2
    18    29    31   am
    19    31    33    1
    20    33    34    1
    21    34    35    1
    22     3     4   ar
    23     4     5    2
    24     4     6   ar
    25     6     7   ar
    26     7     8   ar
    27     8     9   ar
    28     9    10   ar
    29    10    11   ar
    30    16    17   ar
    31    21    22   ar
    32    22    23   ar
    33    23    18   ar
    34    17    12   ar
    35    11     1   ar
    36    35    33    1
    37    11     6   ar
    38    27    28    1
    39    31    32    1
@<TRIPOS>MOLECULE
*****
 35 39 0 0 0
SMALL
GASTEIGER

@<TRIPOS>ATOM
      1 N         140.8287  141.4133  161.3647 N.ar    1  UNL1       -0.2900
      2 C         141.7745  140.6917  160.4511 C.ar    1  UNL1        0.0891
      3 C         142.5062  141.4465  159.3811 C.ar    1  UNL1        0.1098
      4 C         142.2921  142.9228  159.2246 C.ar    1  UNL1        0.2043
      5 O         143.0238  143.6775  158.1546 O.2     1  UNL1       -0.2863
      6 C         141.3462  143.6445  160.1382 C.ar    1  UNL1        0.0736
      7 C         141.1320  145.1208  159.9817 C.ar    1  UNL1        0.0078
      8 C         140.1861  145.8424  160.8952 C.ar    1  UNL1        0.0209
      9 C         139.4544  145.0876  161.9653 C.ar    1  UNL1        0.1005
     10 N         139.6686  143.6113  162.1217 N.ar    1  UNL1       -0.2263
     11 C         140.6145  142.8897  161.2082 C.ar    1  UNL1        0.1507
     12 C         139.5515  140.2759  164.9459 C.ar    1  UNL1        0.0029
     13 C         138.6335  139.1491  164.5748 C.ar    1  UNL1        0.0001
     14 C         138.4473  138.7770  163.1336 C.ar    1  UNL1        0.0015
     15 C         139.1790  139.5318  162.0636 C.ar    1  UNL1        0.0176
     16 C         140.0970  140.6586  162.4347 C.ar    1  UNL1        0.0654
     17 C         140.2832  141.0306  163.8759 C.ar    1  UNL1        0.0176
     18 C         140.1102  141.3920  169.2693 C.ar    1  UNL1        0.0830
     19 C         140.5172  142.3496  168.1889 C.ar    1  UNL1        0.0171
     20 C         140.3310  141.9775  166.7477 C.ar    1  UNL1        0.0028
     21 C         139.7377  140.6479  166.3870 C.ar    1  UNL1        0.0192
     22 C         139.3307  139.6903  167.4675 C.ar    1  UNL1        0.0985
     23 N         139.5170  140.0623  168.9086 N.ar    1  UNL1       -0.2459
     24 C         140.4816  140.3172  171.0600 C.3     1  UNL1        0.0355
     25 C         140.2964  141.7640  170.7105 C.3     1  UNL1        0.1232
     26 C         140.1113  143.2109  170.3609 C.3     1  UNL1        0.0355
     27 O         140.4827  142.1361  172.1517 O.3     1  UNL1       -0.3812
     28 H         140.6357  141.3342  172.6755 H       1  UNL1        0.2107
     29 C         143.4522  140.7248  158.4675 C.2     1  UNL1        0.2504
     30 O         144.2072  139.5275  158.9638 O.2     1  UNL1       -0.2700
     31 N         143.6429  141.2005  157.0578 N.am    1  UNL1       -0.3024
     32 H         143.1473  141.9863  156.7322 H       1  UNL1        0.1497
     33 C         144.5888  140.4788  156.1444 C.3     1  UNL1        0.0720
     34 C         144.9475  139.2619  155.3441 C.3     1  UNL1        0.0213
     35 C         145.8684  140.4458  155.3624 C.3     1  UNL1        0.0213
@<TRIPOS>BOND
     1    24    25    1
     2    25    26    1
     3    25    27    1
     4    25    18    1
     5    18    19   ar
     6    19    20   ar
     7    20    21   ar
     8    21    12    1
     9    12    13   ar
    10    13    14   ar
    11    14    15   ar
    12    15    16   ar
    13    16     1    1
    14     1     2   ar
    15     2     3   ar
    16     3    29    1
    17    29    30    2
    18    29    31   am
    19    31    33    1
    20    33    34    1
    21    34    35    1
    22     3     4   ar
    23     4     5    2
    24     4     6   ar
    25     6     7   ar
    26     7     8   ar
    27     8     9   ar
    28     9    10   ar
    29    10    11   ar
    30    16    17   ar
    31    21    22   ar
    32    22    23   ar
    33    23    18   ar
    34    17    12   ar
    35    11     1   ar
    36    35    33    1
    37    11     6   ar
    38    27    28    1
    39    31    32    1
@<TRIPOS>MOLECULE
*****
 35 39 0 0 0
SMALL
GASTEIGER

@<TRIPOS>ATOM
      1 N         141.5173  142.0487  161.4066 N.ar    1  UNL1       -0.2900
      2 C         141.2850  143.2920  160.6003 C.ar    1  UNL1        0.0891
      3 C         140.3171  143.2729  159.4545 C.ar    1  UNL1        0.1098
      4 C         139.5815  142.0105  159.1151 C.ar    1  UNL1        0.2043
      5 O         138.6135  141.9915  157.9694 O.2     1  UNL1       -0.2863
      6 C         139.8137  140.7672  159.9215 C.ar    1  UNL1        0.0736
      7 C         139.0781  139.5048  159.5821 C.ar    1  UNL1        0.0078
      8 C         139.3104  138.2616  160.3885 C.ar    1  UNL1        0.0209
      9 C         140.2783  138.2806  161.5342 C.ar    1  UNL1        0.1005
     10 N         141.0139  139.5430  161.8736 N.ar    1  UNL1       -0.2263
     11 C         140.7817  140.7863  161.0673 C.ar    1  UNL1        0.1507
     12 C         142.9447  142.1001  165.1093 C.ar    1  UNL1        0.0029
     13 C         144.4211  142.1060  164.8439 C.ar    1  UNL1        0.0001
     14 C         144.9295  142.0927  163.4328 C.ar    1  UNL1        0.0015
     15 C         143.9615  142.0736  162.2870 C.ar    1  UNL1        0.0176
     16 C         142.4852  142.0678  162.5524 C.ar    1  UNL1        0.0654
     17 C         141.9768  142.0810  163.9636 C.ar    1  UNL1        0.0176
     18 C         141.4196  142.1399  169.3428 C.ar    1  UNL1        0.0830
     19 C         142.8685  142.4113  169.0650 C.ar    1  UNL1        0.0171
     20 C         143.3768  142.3981  167.6538 C.ar    1  UNL1        0.0028
     21 C         142.4364  142.1134  166.5205 C.ar    1  UNL1        0.0192
     22 C         140.9875  141.8419  166.7983 C.ar    1  UNL1        0.0985
     23 N         140.4791  141.8552  168.2094 N.ar    1  UNL1       -0.2459
     24 C         140.0068  143.3014  170.4173 C.3     1  UNL1        0.0355
     25 C         140.9113  142.1531  170.7539 C.3     1  UNL1        0.1232
     26 C         141.8157  141.0048  171.0906 C.3     1  UNL1        0.0355
     27 O         140.4029  142.1663  172.1652 O.3     1  UNL1       -0.3812
     28 H         139.7419  142.8693  172.2641 H       1  UNL1        0.2107
     29 C         140.0849  144.5163  158.6481 C.2     1  UNL1        0.2504
     30 O         139.8315  145.8227  159.3403 O.2     1  UNL1       -0.2700
     31 N         140.1060  144.4532  157.1496 N.am    1  UNL1       -0.3024
     32 H         140.2723  143.5958  156.6953 H       1  UNL1        0.1497
     33 C         139.8737  145.6965  156.3433 C.3     1  UNL1        0.0720
     34 C         140.3904  146.7666  155.4280 C.3     1  UNL1        0.0213
     35 C         138.9547  146.7799  155.8621 C.3     1  UNL1        0.0213
@<TRIPOS>BOND
     1    24    25    1
     2    25    26    1
     3    25    27    1
     4    25    18    1
     5    18    19   ar
     6    19    20   ar
     7    20    21   ar
     8    21    12    1
     9    12    13   ar
    10    13    14   ar
    11    14    15   ar
    12    15    16   ar
    13    16     1    1
    14     1     2   ar
    15     2     3   ar
    16     3    29    1
    17    29    30    2
    18    29    31   am
    19    31    33    1
    20    33    34    1
    21    34    35    1
    22     3     4   ar
    23     4     5    2
    24     4     6   ar
    25     6     7   ar
    26     7     8   ar
    27     8     9   ar
    28     9    10   ar
    29    10    11   ar
    30    16    17   ar
    31    21    22   ar
    32    22    23   ar
    33    23    18   ar
    34    17    12   ar
    35    11     1   ar
    36    35    33    1
    37    11     6   ar
    38    27    28    1
    39    31    32    1
@<TRIPOS>MOLECULE
*****
 35 39 0 0 0
SMALL
GASTEIGER

@<TRIPOS>ATOM
      1 N         138.7394  142.1183  161.8159 N.ar    1  UNL1       -0.2900
      2 C         138.6541  142.8698  160.5205 C.ar    1  UNL1        0.0891
      3 C         138.4955  142.1231  159.2293 C.ar    1  UNL1        0.1098
      4 C         138.4222  140.6249  159.2334 C.ar    1  UNL1        0.2043
      5 O         138.2636  139.8782  157.9422 O.2     1  UNL1       -0.2863
      6 C         138.5075  139.8734  160.5288 C.ar    1  UNL1        0.0736
      7 C         138.4342  138.3752  160.5330 C.ar    1  UNL1        0.0078
      8 C         138.5195  137.6238  161.8283 C.ar    1  UNL1        0.0209
      9 C         138.6781  138.3705  163.1195 C.ar    1  UNL1        0.1005
     10 N         138.7514  139.8686  163.1154 N.ar    1  UNL1       -0.2263
     11 C         138.6661  140.6201  161.8200 C.ar    1  UNL1        0.1507
     12 C         139.8657  143.0183  165.5134 C.ar    1  UNL1        0.0029
     13 C         139.2153  144.3585  165.6895 C.ar    1  UNL1        0.0001
     14 C         138.4064  144.9519  164.5744 C.ar    1  UNL1        0.0015
     15 C         138.2478  144.2052  163.2832 C.ar    1  UNL1        0.0176
     16 C         138.8981  142.8651  163.1071 C.ar    1  UNL1        0.0654
     17 C         139.7071  142.2716  164.2222 C.ar    1  UNL1        0.0176
     18 C         142.2925  141.2381  168.8587 C.ar    1  UNL1        0.0830
     19 C         141.2859  142.3111  169.1511 C.ar    1  UNL1        0.0171
     20 C         140.4770  142.9045  168.0359 C.ar    1  UNL1        0.0028
     21 C         140.6746  142.4249  166.6285 C.ar    1  UNL1        0.0192
     22 C         141.6812  141.3519  166.3361 C.ar    1  UNL1        0.0985
     23 N         142.4901  140.7585  167.4512 N.ar    1  UNL1       -0.2459
     24 C         142.3766  139.3421  169.8065 C.3     1  UNL1        0.0355
     25 C         143.1014  140.6446  169.9738 C.3     1  UNL1        0.1232
     26 C         143.8263  141.9471  170.1411 C.3     1  UNL1        0.0355
     27 O         143.9104  140.0512  171.0889 O.3     1  UNL1       -0.3812
     28 H         143.6429  139.1292  171.2273 H       1  UNL1        0.2107
     29 C         138.4102  142.8746  157.9339 C.2     1  UNL1        0.2504
     30 O         139.5229  143.7940  157.5255 O.2     1  UNL1       -0.2700
     31 N         137.2123  142.7067  157.0469 N.am    1  UNL1       -0.3024
     32 H         136.4821  142.1032  157.3149 H       1  UNL1        0.1497
     33 C         137.1271  143.4582  155.7515 C.3     1  UNL1        0.0720
     34 C         137.3889  144.6985  154.9496 C.3     1  UNL1        0.0213
     35 C         136.7175  143.5195  154.3098 C.3     1  UNL1        0.0213
@<TRIPOS>BOND
     1    24    25    1
     2    25    26    1
     3    25    27    1
     4    25    18    1
     5    18    19   ar
     6    19    20   ar
     7    20    21   ar
     8    21    12    1
     9    12    13   ar
    10    13    14   ar
    11    14    15   ar
    12    15    16   ar
    13    16     1    1
    14     1     2   ar
    15     2     3   ar
    16     3    29    1
    17    29    30    2
    18    29    31   am
    19    31    33    1
    20    33    34    1
    21    34    35    1
    22     3     4   ar
    23     4     5    2
    24     4     6   ar
    25     6     7   ar
    26     7     8   ar
    27     8     9   ar
    28     9    10   ar
    29    10    11   ar
    30    16    17   ar
    31    21    22   ar
    32    22    23   ar
    33    23    18   ar
    34    17    12   ar
    35    11     1   ar
    36    35    33    1
    37    11     6   ar
    38    27    28    1
    39    31    32    1
@<TRIPOS>MOLECULE
*****
 35 39 0 0 0
SMALL
GASTEIGER

@<TRIPOS>ATOM
      1 N         140.7049  142.0354  161.3959 N.ar    1  UNL1       -0.2900
      2 C         139.9625  142.7480  160.3046 C.ar    1  UNL1        0.0891
      3 C         140.7187  143.5078  159.2554 C.ar    1  UNL1        0.1098
      4 C         142.2173  143.5549  159.2974 C.ar    1  UNL1        0.2043
      5 O         142.9736  144.3147  158.2482 O.2     1  UNL1       -0.2863
      6 C         142.9598  142.8422  160.3887 C.ar    1  UNL1        0.0736
      7 C         144.4585  142.8893  160.4307 C.ar    1  UNL1        0.0078
      8 C         145.2009  142.1767  161.5220 C.ar    1  UNL1        0.0209
      9 C         144.4447  141.4169  162.5712 C.ar    1  UNL1        0.1005
     10 N         142.9460  141.3698  162.5292 N.ar    1  UNL1       -0.2263
     11 C         142.2036  142.0825  161.4379 C.ar    1  UNL1        0.1507
     12 C         139.4474  140.7879  164.9473 C.ar    1  UNL1        0.0029
     13 C         138.4362  139.7561  164.5436 C.ar    1  UNL1        0.0001
     14 C         138.1813  139.4841  163.0907 C.ar    1  UNL1        0.0015
     15 C         138.9376  140.2438  162.0414 C.ar    1  UNL1        0.0176
     16 C         139.9487  141.2756  162.4451 C.ar    1  UNL1        0.0654
     17 C         140.2036  141.5477  163.8981 C.ar    1  UNL1        0.0176
     18 C         140.2121  141.6040  169.3061 C.ar    1  UNL1        0.0830
     19 C         139.5743  140.3132  168.8854 C.ar    1  UNL1        0.0171
     20 C         139.3194  140.0412  167.4324 C.ar    1  UNL1        0.0028
     21 C         139.7023  141.0599  166.4002 C.ar    1  UNL1        0.0192
     22 C         140.3402  142.3507  166.8210 C.ar    1  UNL1        0.0985
     23 N         140.5951  142.6228  168.2739 N.ar    1  UNL1       -0.2459
     24 C         141.3017  140.6327  170.8454 C.3     1  UNL1        0.0355
     25 C         140.4671  141.8760  170.7590 C.3     1  UNL1        0.1232
     26 C         139.6324  143.1193  170.6727 C.3     1  UNL1        0.0355
     27 O         140.7219  142.1480  172.2120 O.3     1  UNL1       -0.3812
     28 H         141.2858  141.4486  172.5779 H       1  UNL1        0.2107
     29 C         139.9762  144.2205  158.1641 C.2     1  UNL1        0.2504
     30 O         138.8761  143.5193  157.4238 O.2     1  UNL1       -0.2700
     31 N         140.3338  145.6343  157.8131 N.am    1  UNL1       -0.3024
     32 H         141.0559  146.0945  158.2990 H       1  UNL1        0.1497
     33 C         139.5914  146.3469  156.7219 C.3     1  UNL1        0.0720
     34 C         138.8810  146.3185  155.4011 C.3     1  UNL1        0.0213
     35 C         139.0157  147.6096  156.1526 C.3     1  UNL1        0.0213
@<TRIPOS>BOND
     1    24    25    1
     2    25    26    1
     3    25    27    1
     4    25    18    1
     5    18    19   ar
     6    19    20   ar
     7    20    21   ar
     8    21    12    1
     9    12    13   ar
    10    13    14   ar
    11    14    15   ar
    12    15    16   ar
    13    16     1    1
    14     1     2   ar
    15     2     3   ar
    16     3    29    1
    17    29    30    2
    18    29    31   am
    19    31    33    1
    20    33    34    1
    21    34    35    1
    22     3     4   ar
    23     4     5    2
    24     4     6   ar
    25     6     7   ar
    26     7     8   ar
    27     8     9   ar
    28     9    10   ar
    29    10    11   ar
    30    16    17   ar
    31    21    22   ar
    32    22    23   ar
    33    23    18   ar
    34    17    12   ar
    35    11     1   ar
    36    35    33    1
    37    11     6   ar
    38    27    28    1
    39    31    32    1
@<TRIPOS>MOLECULE
*****
 35 39 0 0 0
SMALL
GASTEIGER

@<TRIPOS>ATOM
      1 N         142.2673  140.0233  161.0450 N.ar    1  UNL1       -0.2900
      2 C         142.8885  139.2866  159.8956 C.ar    1  UNL1        0.0891
      3 C         142.0168  138.6234  158.8707 C.ar    1  UNL1        0.1098
      4 C         140.5238  138.6970  158.9953 C.ar    1  UNL1        0.2043
      5 O         139.6521  138.0339  157.9705 O.2     1  UNL1       -0.2863
      6 C         139.9025  139.4338  160.1448 C.ar    1  UNL1        0.0736
      7 C         138.4095  139.5073  160.2694 C.ar    1  UNL1        0.0078
      8 C         137.7883  140.2440  161.4189 C.ar    1  UNL1        0.0209
      9 C         138.6601  140.9072  162.4437 C.ar    1  UNL1        0.1005
     10 N         140.1530  140.8336  162.3191 N.ar    1  UNL1       -0.2263
     11 C         140.7743  140.0969  161.1697 C.ar    1  UNL1        0.1507
     12 C         143.6784  141.2300  164.5526 C.ar    1  UNL1        0.0029
     13 C         144.8825  142.0126  164.1196 C.ar    1  UNL1        0.0001
     14 C         145.2149  142.1322  162.6618 C.ar    1  UNL1        0.0015
     15 C         144.3432  141.4690  161.6369 C.ar    1  UNL1        0.0176
     16 C         143.1391  140.6864  162.0699 C.ar    1  UNL1        0.0654
     17 C         142.8066  140.5668  163.5277 C.ar    1  UNL1        0.0176
     18 C         142.6812  140.8714  168.9260 C.ar    1  UNL1        0.0830
     19 C         143.0175  142.2110  168.3408 C.ar    1  UNL1        0.0171
     20 C         143.3499  142.3305  166.8830 C.ar    1  UNL1        0.0028
     21 C         143.3460  141.1104  166.0104 C.ar    1  UNL1        0.0192
     22 C         143.0096  139.7709  166.5956 C.ar    1  UNL1        0.0985
     23 N         142.6772  139.6514  168.0533 N.ar    1  UNL1       -0.2459
     24 C         142.1647  142.2384  170.4637 C.3     1  UNL1        0.0355
     25 C         142.3488  140.7519  170.3838 C.3     1  UNL1        0.1232
     26 C         142.5329  139.2654  170.3039 C.3     1  UNL1        0.0355
     27 O         142.0164  140.6323  171.8417 O.3     1  UNL1       -0.3812
     28 H         141.8325  141.5128  172.2046 H       1  UNL1        0.2107
     29 C         142.6381  137.8867  157.7212 C.2     1  UNL1        0.2504
     30 O         143.7250  138.5340  156.9152 O.2     1  UNL1       -0.2700
     31 N         142.1725  136.5028  157.3778 N.am    1  UNL1       -0.3024
     32 H         141.4591  136.0780  157.9068 H       1  UNL1        0.1497
     33 C         142.7938  135.7662  156.2283 C.3     1  UNL1        0.0720
     34 C         142.9388  135.5478  154.7514 C.3     1  UNL1        0.0213
     35 C         143.7250  134.7085  155.7144 C.3     1  UNL1        0.0213
@<TRIPOS>BOND
     1    24    25    1
     2    25    26    1
     3    25    27    1
     4    25    18    1
     5    18    19   ar
     6    19    20   ar
     7    20    21   ar
     8    21    12    1
     9    12    13   ar
    10    13    14   ar
    11    14    15   ar
    12    15    16   ar
    13    16     1    1
    14     1     2   ar
    15     2     3   ar
    16     3    29    1
    17    29    30    2
    18    29    31   am
    19    31    33    1
    20    33    34    1
    21    34    35    1
    22     3     4   ar
    23     4     5    2
    24     4     6   ar
    25     6     7   ar
    26     7     8   ar
    27     8     9   ar
    28     9    10   ar
    29    10    11   ar
    30    16    17   ar
    31    21    22   ar
    32    22    23   ar
    33    23    18   ar
    34    17    12   ar
    35    11     1   ar
    36    35    33    1
    37    11     6   ar
    38    27    28    1
    39    31    32    1
@<TRIPOS>MOLECULE
*****
 35 39 0 0 0
SMALL
GASTEIGER

@<TRIPOS>ATOM
      1 N         141.1931  140.0901  161.3191 N.ar    1  UNL1       -0.2900
      2 C         141.0488  139.0292  160.2686 C.ar    1  UNL1        0.0891
      3 C         142.0271  138.9596  159.1336 C.ar    1  UNL1        0.1098
      4 C         143.1495  139.9510  159.0491 C.ar    1  UNL1        0.2043
      5 O         144.1278  139.8814  157.9141 O.2     1  UNL1       -0.2863
      6 C         143.2938  141.0120  160.0996 C.ar    1  UNL1        0.0736
      7 C         144.4163  142.0034  160.0151 C.ar    1  UNL1        0.0078
      8 C         144.5606  143.0643  161.0656 C.ar    1  UNL1        0.0209
      9 C         143.5823  143.1339  162.2006 C.ar    1  UNL1        0.1005
     10 N         142.4598  142.1425  162.2851 N.ar    1  UNL1       -0.2263
     11 C         142.3156  141.0816  161.2346 C.ar    1  UNL1        0.1507
     12 C         139.7321  140.2907  165.0036 C.ar    1  UNL1        0.0029
     13 C         138.2584  140.2989  164.7241 C.ar    1  UNL1        0.0001
     14 C         137.7629  140.2375  163.3096 C.ar    1  UNL1        0.0015
     15 C         138.7411  140.1679  162.1746 C.ar    1  UNL1        0.0176
     16 C         140.2148  140.1597  162.4541 C.ar    1  UNL1        0.0654
     17 C         140.7103  140.2211  163.8686 C.ar    1  UNL1        0.0176
     18 C         141.2185  140.4749  169.2470 C.ar    1  UNL1        0.0830
     19 C         142.0862  140.9661  168.1264 C.ar    1  UNL1        0.0171
     20 C         141.5907  140.9047  166.7119 C.ar    1  UNL1        0.0028
     21 C         140.2276  140.3521  166.4180 C.ar    1  UNL1        0.0192
     22 C         139.3598  139.8609  167.5387 C.ar    1  UNL1        0.0985
     23 N         139.8553  139.9222  168.9531 N.ar    1  UNL1       -0.2459
     24 C         140.7501  141.6486  170.9508 C.3     1  UNL1        0.0355
     25 C         141.7139  140.5362  170.6615 C.3     1  UNL1        0.1232
     26 C         142.6778  139.4239  170.3721 C.3     1  UNL1        0.0355
     27 O         142.2095  140.5976  172.0760 O.3     1  UNL1       -0.3812
     28 H         141.7286  141.2890  172.5573 H       1  UNL1        0.2107
     29 C         141.8828  137.8986  158.0831 C.2     1  UNL1        0.2504
     30 O         140.5528  137.6663  157.4295 O.2     1  UNL1       -0.2700
     31 N         143.0684  137.0699  157.6863 N.am    1  UNL1       -0.3024
     32 H         143.9413  137.2224  158.1153 H       1  UNL1        0.1497
     33 C         142.9241  136.0090  156.6358 C.3     1  UNL1        0.0720
     34 C         142.0807  134.9962  155.9197 C.3     1  UNL1        0.0213
     35 C         143.5176  135.1842  155.5324 C.3     1  UNL1        0.0213
@<TRIPOS>BOND
     1    24    25    1
     2    25    26    1
     3    25    27    1
     4    25    18    1
     5    18    19   ar
     6    19    20   ar
     7    20    21   ar
     8    21    12    1
     9    12    13   ar
    10    13    14   ar
    11    14    15   ar
    12    15    16   ar
    13    16     1    1
    14     1     2   ar
    15     2     3   ar
    16     3    29    1
    17    29    30    2
    18    29    31   am
    19    31    33    1
    20    33    34    1
    21    34    35    1
    22     3     4   ar
    23     4     5    2
    24     4     6   ar
    25     6     7   ar
    26     7     8   ar
    27     8     9   ar
    28     9    10   ar
    29    10    11   ar
    30    16    17   ar
    31    21    22   ar
    32    22    23   ar
    33    23    18   ar
    34    17    12   ar
    35    11     1   ar
    36    35    33    1
    37    11     6   ar
    38    27    28    1
    39    31    32    1
@<TRIPOS>MOLECULE
*****
 35 39 0 0 0
SMALL
GASTEIGER

@<TRIPOS>ATOM
      1 N         139.7376  142.2931  160.4670 N.ar    1  UNL1       -0.2900
      2 C         138.5626  142.3876  159.5394 C.ar    1  UNL1        0.0891
      3 C         138.5706  141.6380  158.2401 C.ar    1  UNL1        0.1098
      4 C         139.7535  140.7939  157.8685 C.ar    1  UNL1        0.2043
      5 O         139.7615  140.0443  156.5693 O.2     1  UNL1       -0.2863
      6 C         140.9286  140.6993  158.7962 C.ar    1  UNL1        0.0736
      7 C         142.1115  139.8552  158.4246 C.ar    1  UNL1        0.0078
      8 C         143.2864  139.7607  159.3522 C.ar    1  UNL1        0.0209
      9 C         143.2784  140.5104  160.6515 C.ar    1  UNL1        0.1005
     10 N         142.0955  141.3545  161.0231 N.ar    1  UNL1       -0.2263
     11 C         140.9206  141.4490  160.0954 C.ar    1  UNL1        0.1507
     12 C         139.8221  143.0458  164.3627 C.ar    1  UNL1        0.0029
     13 C         139.7136  144.5419  164.3647 C.ar    1  UNL1        0.0001
     14 C         139.6130  145.2883  163.0676 C.ar    1  UNL1        0.0015
     15 C         139.6210  144.5387  161.7683 C.ar    1  UNL1        0.0176
     16 C         139.7296  143.0427  161.7663 C.ar    1  UNL1        0.0654
     17 C         139.8301  142.2962  163.0635 C.ar    1  UNL1        0.0176
     18 C         140.1238  140.8065  168.2543 C.ar    1  UNL1        0.0830
     19 C         140.6738  142.1977  168.1449 C.ar    1  UNL1        0.0171
     20 C         140.5733  142.9442  166.8477 C.ar    1  UNL1        0.0028
     21 C         139.9227  142.2994  165.6599 C.ar    1  UNL1        0.0192
     22 C         139.3727  140.9081  165.7692 C.ar    1  UNL1        0.0985
     23 N         139.4732  140.1617  167.0664 N.ar    1  UNL1       -0.2459
     24 C         141.6552  139.7269  169.2488 C.3     1  UNL1        0.0355
     25 C         140.2244  140.0601  169.5515 C.3     1  UNL1        0.1232
     26 C         138.7936  140.3933  169.8541 C.3     1  UNL1        0.0355
     27 O         140.3249  139.3136  170.8487 O.3     1  UNL1       -0.3812
     28 H         141.2189  138.9495  170.9438 H       1  UNL1        0.2107
     29 C         137.3956  141.7325  157.3125 C.2     1  UNL1        0.2504
     30 O         137.1157  143.0140  156.5849 O.2     1  UNL1       -0.2700
     31 N         136.5005  140.5456  157.1125 N.am    1  UNL1       -0.3024
     32 H         136.6842  139.7045  157.5901 H       1  UNL1        0.1497
     33 C         135.3256  140.6402  156.1849 C.3     1  UNL1        0.0720
     34 C         133.8603  140.4569  155.9216 C.3     1  UNL1        0.0213
     35 C         134.7558  140.9873  154.8414 C.3     1  UNL1        0.0213
@<TRIPOS>BOND
     1    24    25    1
     2    25    26    1
     3    25    27    1
     4    25    18    1
     5    18    19   ar
     6    19    20   ar
     7    20    21   ar
     8    21    12    1
     9    12    13   ar
    10    13    14   ar
    11    14    15   ar
    12    15    16   ar
    13    16     1    1
    14     1     2   ar
    15     2     3   ar
    16     3    29    1
    17    29    30    2
    18    29    31   am
    19    31    33    1
    20    33    34    1
    21    34    35    1
    22     3     4   ar
    23     4     5    2
    24     4     6   ar
    25     6     7   ar
    26     7     8   ar
    27     8     9   ar
    28     9    10   ar
    29    10    11   ar
    30    16    17   ar
    31    21    22   ar
    32    22    23   ar
    33    23    18   ar
    34    17    12   ar
    35    11     1   ar
    36    35    33    1
    37    11     6   ar
    38    27    28    1
    39    31    32    1
@<TRIPOS>MOLECULE
*****
 35 39 0 0 0
SMALL
GASTEIGER

@<TRIPOS>ATOM
      1 N         143.2941  142.1088  161.3457 N.ar    1  UNL1       -0.2900
      2 C         144.1255  141.8759  160.1191 C.ar    1  UNL1        0.0891
      3 C         143.8992  142.7066  158.8908 C.ar    1  UNL1        0.1098
      4 C         142.8417  143.7703  158.8891 C.ar    1  UNL1        0.2043
      5 O         142.6154  144.6010  157.6608 O.2     1  UNL1       -0.2863
      6 C         142.0102  144.0033  160.1157 C.ar    1  UNL1        0.0736
      7 C         140.9526  145.0669  160.1140 C.ar    1  UNL1        0.0078
      8 C         140.1212  145.2999  161.3406 C.ar    1  UNL1        0.0209
      9 C         140.3475  144.4691  162.5688 C.ar    1  UNL1        0.1005
     10 N         141.4050  143.4054  162.5706 N.ar    1  UNL1       -0.2263
     11 C         142.2364  143.1725  161.3440 C.ar    1  UNL1        0.1507
     12 C         143.0892  140.8270  165.0960 C.ar    1  UNL1        0.0029
     13 C         143.9727  139.6166  165.0305 C.ar    1  UNL1        0.0001
     14 C         144.6300  139.2369  163.7368 C.ar    1  UNL1        0.0015
     15 C         144.4038  140.0676  162.5085 C.ar    1  UNL1        0.0176
     16 C         143.5203  141.2780  162.5740 C.ar    1  UNL1        0.0654
     17 C         142.8630  141.6578  163.8678 C.ar    1  UNL1        0.0176
     18 C         141.1175  141.9660  168.9774 C.ar    1  UNL1        0.0830
     19 C         142.0123  140.7638  168.9152 C.ar    1  UNL1        0.0171
     20 C         142.6695  140.3841  167.6214 C.ar    1  UNL1        0.0028
     21 C         142.4320  141.2067  166.3898 C.ar    1  UNL1        0.0192
     22 C         141.5372  142.4090  166.4520 C.ar    1  UNL1        0.0985
     23 N         140.8799  142.7887  167.7457 N.ar    1  UNL1       -0.2459
     24 C         140.4037  143.7760  169.8227 C.3     1  UNL1        0.0355
     25 C         140.4602  142.3457  170.2711 C.3     1  UNL1        0.1232
     26 C         140.5167  140.9154  170.7195 C.3     1  UNL1        0.0355
     27 O         139.8029  142.7253  171.5650 O.3     1  UNL1       -0.3812
     28 H         139.6268  143.6792  171.5705 H       1  UNL1        0.2107
     29 C         144.7307  142.4736  157.6642 C.2     1  UNL1        0.2504
     30 O         144.0970  141.9195  156.4227 O.2     1  UNL1       -0.2700
     31 N         146.1958  142.7948  157.6791 N.am    1  UNL1       -0.3024
     32 H         146.6117  143.1586  158.4939 H       1  UNL1        0.1497
     33 C         147.0272  142.5619  156.4526 C.3     1  UNL1        0.0720
     34 C         148.3005  142.0879  155.8171 C.3     1  UNL1        0.0213
     35 C         147.1937  142.6323  154.9635 C.3     1  UNL1        0.0213
@<TRIPOS>BOND
     1    24    25    1
     2    25    26    1
     3    25    27    1
     4    25    18    1
     5    18    19   ar
     6    19    20   ar
     7    20    21   ar
     8    21    12    1
     9    12    13   ar
    10    13    14   ar
    11    14    15   ar
    12    15    16   ar
    13    16     1    1
    14     1     2   ar
    15     2     3   ar
    16     3    29    1
    17    29    30    2
    18    29    31   am
    19    31    33    1
    20    33    34    1
    21    34    35    1
    22     3     4   ar
    23     4     5    2
    24     4     6   ar
    25     6     7   ar
    26     7     8   ar
    27     8     9   ar
    28     9    10   ar
    29    10    11   ar
    30    16    17   ar
    31    21    22   ar
    32    22    23   ar
    33    23    18   ar
    34    17    12   ar
    35    11     1   ar
    36    35    33    1
    37    11     6   ar
    38    27    28    1
    39    31    32    1
