@<TRIPOS>MOLECULE
*****
 34 38 0 0 0
SMALL
GASTEIGER

@<TRIPOS>ATOM
      1 N         138.5092  141.0430  164.3280 N.3     1  UNL1       -0.2704
      2 C         138.9847  140.6987  162.9477 C.3     1  UNL1        0.0722
      3 C         139.3434  141.7907  161.9839 C.3     1  UNL1        0.0195
      4 C         139.2266  143.2270  162.4004 C.3     1  UNL1        0.0300
      5 C         138.7510  143.5713  163.7807 C.3     1  UNL1        0.0195
      6 C         138.3923  142.4793  164.7445 C.3     1  UNL1        0.0722
      7 C         139.1607  144.7005  162.6732 C.3     1  UNL1        0.0874
      8 C         139.6076  145.4214  161.4360 C.2     1  UNL1        0.2304
      9 O         139.6968  146.9091  161.2660 O.2     1  UNL1       -0.2745
     10 N         139.9497  144.3934  160.3985 N.am    1  UNL1       -0.2439
     11 C         139.7142  143.0372  160.9946 C.3     1  UNL1        0.1001
     12 C         140.4409  144.6725  159.0091 C.ar    1  UNL1        0.1374
     13 C         139.7444  144.0601  157.8302 C.ar    1  UNL1        0.0354
     14 C         140.2357  144.3393  156.4407 C.ar    1  UNL1        0.0147
     15 C         141.4234  145.2309  156.2301 C.ar    1  UNL1        0.0877
     16 C         142.1200  145.8433  157.4090 C.ar    1  UNL1        0.1105
     17 N         141.6286  145.5641  158.7985 N.ar    1  UNL1       -0.2281
     18 C         141.9147  145.5101  154.8405 C.1     1  UNL1        0.1020
     19 N         142.4060  145.7892  153.4510 N.1     1  UNL1       -0.1908
     20 C         138.1504  139.9510  165.2918 C.3     1  UNL1        0.1063
     21 C         139.2244  139.2700  166.0872 C.3     1  UNL1        0.1483
     22 O         139.6430  137.8722  165.7396 O.3     1  UNL1       -0.3786
     23 H         140.3420  137.5835  166.3471 H       1  UNL1        0.2108
     24 C         141.7856  140.7689  165.6472 C.3     1  UNL1        0.0306
     25 C         141.1604  140.7362  167.0103 C.ar    1  UNL1       -0.0238
     26 C         139.8798  139.9869  167.2303 C.ar    1  UNL1        0.0015
     27 C         139.2547  139.9543  168.5934 C.ar    1  UNL1       -0.0020
     28 C         139.9100  140.6710  169.7365 C.ar    1  UNL1        0.0060
     29 C         141.1906  141.4204  169.5164 C.ar    1  UNL1        0.0748
     30 C         141.8158  141.4530  168.1533 C.ar    1  UNL1        0.0233
     31 C         143.0721  142.2682  168.2390 C.3     1  UNL1        0.2352
     32 O         143.2233  142.7394  169.6550 O.3     1  UNL1       -0.4404
     33 C         142.0605  142.2154  170.4445 C.2     1  UNL1        0.3413
     34 O         141.8113  142.4460  171.9056 O.2     1  UNL1       -0.2449
@<TRIPOS>BOND
     1    24    25    1
     2    25    26   ar
     3    26    21    1
     4    21    22    1
     5    21    20    1
     6    20     1    1
     7     1     2    1
     8     2     3    1
     9     3     4    1
    10     4     5    1
    11     5     6    1
    12     4     7    1
    13     7     8    1
    14     8     9    2
    15     8    10   am
    16    10    12    1
    17    12    13   ar
    18    13    14   ar
    19    14    15   ar
    20    15    18    1
    21    18    19    3
    22    15    16   ar
    23    16    17   ar
    24    10    11    1
    25    26    27   ar
    26    27    28   ar
    27    28    29   ar
    28    29    30   ar
    29    30    31    1
    30    31    32    1
    31    32    33    1
    32    33    34    2
    33    30    25   ar
    34     6     1    1
    35    17    12   ar
    36    33    29    1
    37    11     4    1
    38    22    23    1
@<TRIPOS>MOLECULE
*****
 34 38 0 0 0
SMALL
GASTEIGER

@<TRIPOS>ATOM
      1 N         138.5932  139.1574  164.6305 N.3     1  UNL1       -0.2704
      2 C         137.9484  140.2959  163.8969 C.3     1  UNL1        0.0722
      3 C         138.0191  140.3595  162.4000 C.3     1  UNL1        0.0195
      4 C         138.7346  139.2846  161.6366 C.3     1  UNL1        0.0300
      5 C         139.3793  138.1461  162.3701 C.3     1  UNL1        0.0195
      6 C         139.3086  138.0825  163.8671 C.3     1  UNL1        0.0722
      7 C         139.4115  138.2882  160.7427 C.3     1  UNL1        0.0874
      8 C         139.2360  138.7436  159.3243 C.2     1  UNL1        0.2304
      9 O         139.7548  138.0439  158.1031 O.2     1  UNL1       -0.2745
     10 N         138.4506  140.0215  159.3415 N.am    1  UNL1       -0.2439
     11 C         138.1408  140.3558  160.7705 C.3     1  UNL1        0.1001
     12 C         138.0462  140.8240  158.1406 C.ar    1  UNL1        0.1374
     13 C         138.8938  141.9760  157.6883 C.ar    1  UNL1        0.0354
     14 C         138.4893  142.7786  156.4874 C.ar    1  UNL1        0.0147
     15 C         137.2374  142.4292  155.7387 C.ar    1  UNL1        0.0877
     16 C         136.3898  141.2772  156.1910 C.ar    1  UNL1        0.1105
     17 N         136.7943  140.4746  157.3920 N.ar    1  UNL1       -0.2281
     18 C         136.8329  143.2318  154.5377 C.1     1  UNL1        0.1020
     19 N         136.4285  144.0344  153.3368 N.1     1  UNL1       -0.1908
     20 C         138.5225  139.0937  166.1275 C.3     1  UNL1        0.1063
     21 C         139.5721  139.7717  166.9574 C.3     1  UNL1        0.1483
     22 O         139.3382  140.0014  168.4211 O.3     1  UNL1       -0.3786
     23 H         140.1090  140.4474  168.8056 H       1  UNL1        0.2108
     24 C         139.8864  142.6155  166.0549 C.3     1  UNL1        0.0306
     25 C         141.0127  141.6418  165.8723 C.ar    1  UNL1       -0.0238
     26 C         140.8556  140.2200  166.3235 C.ar    1  UNL1        0.0015
     27 C         141.9820  139.2463  166.1409 C.ar    1  UNL1       -0.0020
     28 C         143.2654  139.6945  165.5071 C.ar    1  UNL1        0.0060
     29 C         143.4226  141.1163  165.0559 C.ar    1  UNL1        0.0748
     30 C         142.2962  142.0900  165.2385 C.ar    1  UNL1        0.0233
     31 C         142.7392  143.4177  164.6992 C.3     1  UNL1        0.2352
     32 O         144.1394  143.2647  164.1832 O.3     1  UNL1       -0.4404
     33 C         144.5617  141.8423  164.4037 C.2     1  UNL1        0.3413
     34 O         145.8899  141.2499  164.0365 O.2     1  UNL1       -0.2449
@<TRIPOS>BOND
     1    24    25    1
     2    25    26   ar
     3    26    21    1
     4    21    22    1
     5    21    20    1
     6    20     1    1
     7     1     2    1
     8     2     3    1
     9     3     4    1
    10     4     5    1
    11     5     6    1
    12     4     7    1
    13     7     8    1
    14     8     9    2
    15     8    10   am
    16    10    12    1
    17    12    13   ar
    18    13    14   ar
    19    14    15   ar
    20    15    18    1
    21    18    19    3
    22    15    16   ar
    23    16    17   ar
    24    10    11    1
    25    26    27   ar
    26    27    28   ar
    27    28    29   ar
    28    29    30   ar
    29    30    31    1
    30    31    32    1
    31    32    33    1
    32    33    34    2
    33    30    25   ar
    34     6     1    1
    35    17    12   ar
    36    33    29    1
    37    11     4    1
    38    22    23    1
@<TRIPOS>MOLECULE
*****
 34 38 0 0 0
SMALL
GASTEIGER

@<TRIPOS>ATOM
      1 N         138.5198  139.2108  164.3565 N.3     1  UNL1       -0.2704
      2 C         139.2253  138.1176  163.6101 C.3     1  UNL1        0.0722
      3 C         139.3630  138.1958  162.1186 C.3     1  UNL1        0.0195
      4 C         138.7954  139.3673  161.3734 C.3     1  UNL1        0.0300
      5 C         138.0899  140.4606  162.1197 C.3     1  UNL1        0.0195
      6 C         137.9521  140.3823  163.6113 C.3     1  UNL1        0.0722
      7 C         138.2817  140.4712  160.4972 C.3     1  UNL1        0.0874
      8 C         138.6399  140.1415  159.0783 C.2     1  UNL1        0.2304
      9 O         138.3194  140.9734  157.8720 O.2     1  UNL1       -0.2745
     10 N         139.3750  138.8339  159.0776 N.am    1  UNL1       -0.2439
     11 C         139.4711  138.3555  160.4960 C.3     1  UNL1        0.1001
     12 C         139.9185  138.1287  157.8705 C.ar    1  UNL1        0.1374
     13 C         141.3863  137.8364  157.7703 C.ar    1  UNL1        0.0354
     14 C         141.9299  137.1311  156.5631 C.ar    1  UNL1        0.0147
     15 C         141.0056  136.7182  155.4562 C.ar    1  UNL1        0.0877
     16 C         139.5377  137.0105  155.5565 C.ar    1  UNL1        0.1105
     17 N         138.9943  137.7158  156.7636 N.ar    1  UNL1       -0.2281
     18 C         141.5491  136.0129  154.2491 C.1     1  UNL1        0.1020
     19 N         142.0927  135.3077  153.0419 N.1     1  UNL1       -0.1908
     20 C         138.3820  139.1325  165.8482 C.3     1  UNL1        0.1063
     21 C         139.4413  139.7224  166.7312 C.3     1  UNL1        0.1483
     22 O         139.1929  139.8726  168.2029 O.3     1  UNL1       -0.3786
     23 H         139.9726  140.2673  168.6237 H       1  UNL1        0.2108
     24 C         139.8492  142.5925  165.9590 C.3     1  UNL1        0.0306
     25 C         140.9530  141.5972  165.7565 C.ar    1  UNL1       -0.0238
     26 C         140.7491  140.1622  166.1426 C.ar    1  UNL1        0.0015
     27 C         141.8529  139.1669  165.9401 C.ar    1  UNL1       -0.0020
     28 C         143.1606  139.6066  165.3515 C.ar    1  UNL1        0.0060
     29 C         143.3645  141.0416  164.9655 C.ar    1  UNL1        0.0748
     30 C         142.2608  142.0369  165.1680 C.ar    1  UNL1        0.0233
     31 C         142.7498  143.3739  164.6953 C.3     1  UNL1        0.2352
     32 O         144.1557  143.2049  164.2007 O.3     1  UNL1       -0.4404
     33 C         144.5357  141.7634  164.3677 C.2     1  UNL1        0.3413
     34 O         145.8552  141.1513  164.0012 O.2     1  UNL1       -0.2449
@<TRIPOS>BOND
     1    24    25    1
     2    25    26   ar
     3    26    21    1
     4    21    22    1
     5    21    20    1
     6    20     1    1
     7     1     2    1
     8     2     3    1
     9     3     4    1
    10     4     5    1
    11     5     6    1
    12     4     7    1
    13     7     8    1
    14     8     9    2
    15     8    10   am
    16    10    12    1
    17    12    13   ar
    18    13    14   ar
    19    14    15   ar
    20    15    18    1
    21    18    19    3
    22    15    16   ar
    23    16    17   ar
    24    10    11    1
    25    26    27   ar
    26    27    28   ar
    27    28    29   ar
    28    29    30   ar
    29    30    31    1
    30    31    32    1
    31    32    33    1
    32    33    34    2
    33    30    25   ar
    34     6     1    1
    35    17    12   ar
    36    33    29    1
    37    11     4    1
    38    22    23    1
@<TRIPOS>MOLECULE
*****
 34 38 0 0 0
SMALL
GASTEIGER

@<TRIPOS>ATOM
      1 N         139.4099  140.4387  161.4100 N.3     1  UNL1       -0.2704
      2 C         140.6967  139.7700  161.0270 C.3     1  UNL1        0.0722
      3 C         141.6504  140.4569  160.0950 C.3     1  UNL1        0.0195
      4 C         141.3173  141.8125  159.5461 C.3     1  UNL1        0.0300
      5 C         140.0304  142.4812  159.9291 C.3     1  UNL1        0.0195
      6 C         139.0767  141.7943  160.8610 C.3     1  UNL1        0.0722
      7 C         141.1212  143.1618  158.9207 C.3     1  UNL1        0.0874
      8 C         142.3173  143.4539  158.0639 C.2     1  UNL1        0.2304
      9 O         142.5391  144.6965  157.2536 O.2     1  UNL1       -0.2745
     10 N         143.2527  142.2851  158.1598 N.am    1  UNL1       -0.2439
     11 C         142.6347  141.2707  159.0757 C.3     1  UNL1        0.1001
     12 C         144.5740  142.1538  157.4621 C.ar    1  UNL1        0.1374
     13 C         144.6887  141.3134  156.2250 C.ar    1  UNL1        0.0354
     14 C         146.0101  141.1821  155.5273 C.ar    1  UNL1        0.0147
     15 C         147.2168  141.8912  156.0668 C.ar    1  UNL1        0.0877
     16 C         147.1021  142.7317  157.3040 C.ar    1  UNL1        0.1105
     17 N         145.7807  142.8629  158.0016 N.ar    1  UNL1       -0.2281
     18 C         148.5382  141.7599  155.3691 C.1     1  UNL1        0.1020
     19 N         149.8596  141.6287  154.6715 N.1     1  UNL1       -0.1908
     20 C         138.4561  139.7519  162.3420 C.3     1  UNL1        0.1063
     21 C         137.8202  140.5186  163.4635 C.3     1  UNL1        0.1483
     22 O         136.6061  141.3601  163.2029 O.3     1  UNL1       -0.3786
     23 H         136.3242  141.7851  164.0280 H       1  UNL1        0.2108
     24 C         139.6888  142.6594  164.4255 C.3     1  UNL1        0.0306
     25 C         139.3327  141.5143  165.3266 C.ar    1  UNL1       -0.0238
     26 C         138.3985  140.4439  164.8456 C.ar    1  UNL1        0.0015
     27 C         138.0424  139.2988  165.7466 C.ar    1  UNL1       -0.0020
     28 C         138.6205  139.2240  167.1287 C.ar    1  UNL1        0.0060
     29 C         139.5548  140.2944  167.6097 C.ar    1  UNL1        0.0748
     30 C         139.9109  141.4395  166.7086 C.ar    1  UNL1        0.0233
     31 C         140.8514  142.3401  167.4532 C.3     1  UNL1        0.2352
     32 O         141.0766  141.7515  168.8144 O.3     1  UNL1       -0.4404
     33 C         140.2753  140.4872  168.9111 C.2     1  UNL1        0.3413
     34 O         140.2064  139.5758  170.1004 O.2     1  UNL1       -0.2449
@<TRIPOS>BOND
     1    24    25    1
     2    25    26   ar
     3    26    21    1
     4    21    22    1
     5    21    20    1
     6    20     1    1
     7     1     2    1
     8     2     3    1
     9     3     4    1
    10     4     5    1
    11     5     6    1
    12     4     7    1
    13     7     8    1
    14     8     9    2
    15     8    10   am
    16    10    12    1
    17    12    13   ar
    18    13    14   ar
    19    14    15   ar
    20    15    18    1
    21    18    19    3
    22    15    16   ar
    23    16    17   ar
    24    10    11    1
    25    26    27   ar
    26    27    28   ar
    27    28    29   ar
    28    29    30   ar
    29    30    31    1
    30    31    32    1
    31    32    33    1
    32    33    34    2
    33    30    25   ar
    34     6     1    1
    35    17    12   ar
    36    33    29    1
    37    11     4    1
    38    22    23    1
@<TRIPOS>MOLECULE
*****
 34 38 0 0 0
SMALL
GASTEIGER

@<TRIPOS>ATOM
      1 N         142.3150  139.0285  164.6904 N.3     1  UNL1       -0.2704
      2 C         141.6088  137.9965  163.8621 C.3     1  UNL1        0.0722
      3 C         141.8596  137.9202  162.3852 C.3     1  UNL1        0.0195
      4 C         142.8167  138.8759  161.7367 C.3     1  UNL1        0.0300
      5 C         143.5229  139.9079  162.5650 C.3     1  UNL1        0.0195
      6 C         143.2721  139.9842  164.0419 C.3     1  UNL1        0.0722
      7 C         143.7411  139.7595  160.9526 C.3     1  UNL1        0.0874
      8 C         143.6829  139.3322  159.5158 C.2     1  UNL1        0.2304
      9 O         144.4503  139.9450  158.3820 O.2     1  UNL1       -0.2745
     10 N         142.7226  138.1846  159.4120 N.am    1  UNL1       -0.2439
     11 C         142.1872  137.9025  160.7845 C.3     1  UNL1        0.1001
     12 C         142.3611  137.4483  158.1562 C.ar    1  UNL1        0.1374
     13 C         141.1227  137.8230  157.3972 C.ar    1  UNL1        0.0354
     14 C         140.7612  137.0867  156.1413 C.ar    1  UNL1        0.0147
     15 C         141.6380  135.9757  155.6445 C.ar    1  UNL1        0.0877
     16 C         142.8764  135.6009  156.4035 C.ar    1  UNL1        0.1105
     17 N         143.2379  136.3373  157.6594 N.ar    1  UNL1       -0.2281
     18 C         141.2765  135.2393  154.3886 C.1     1  UNL1        0.1020
     19 N         140.9150  134.5030  153.1328 N.1     1  UNL1       -0.1908
     20 C         142.0641  139.1048  166.1674 C.3     1  UNL1        0.1063
     21 C         141.0393  140.0587  166.7058 C.3     1  UNL1        0.1483
     22 O         140.6581  140.0101  168.1557 O.3     1  UNL1       -0.3786
     23 H         139.9886  140.6883  168.3368 H       1  UNL1        0.2108
     24 C         138.5431  139.3371  165.2063 C.3     1  UNL1        0.0306
     25 C         139.1476  140.7003  165.0445 C.ar    1  UNL1       -0.0238
     26 C         140.3957  141.0611  165.7942 C.ar    1  UNL1        0.0015
     27 C         141.0002  142.4244  165.6324 C.ar    1  UNL1       -0.0020
     28 C         140.3567  143.4268  164.7208 C.ar    1  UNL1        0.0060
     29 C         139.1086  143.0660  163.9711 C.ar    1  UNL1        0.0748
     30 C         138.5041  141.7028  164.1329 C.ar    1  UNL1        0.0233
     31 C         137.2786  141.6339  163.2707 C.3     1  UNL1        0.2352
     32 O         137.1256  142.9545  162.5761 O.3     1  UNL1       -0.4404
     33 C         138.2567  143.8396  163.0089 C.2     1  UNL1        0.3413
     34 O         138.4941  145.2506  162.5587 O.2     1  UNL1       -0.2449
@<TRIPOS>BOND
     1    24    25    1
     2    25    26   ar
     3    26    21    1
     4    21    22    1
     5    21    20    1
     6    20     1    1
     7     1     2    1
     8     2     3    1
     9     3     4    1
    10     4     5    1
    11     5     6    1
    12     4     7    1
    13     7     8    1
    14     8     9    2
    15     8    10   am
    16    10    12    1
    17    12    13   ar
    18    13    14   ar
    19    14    15   ar
    20    15    18    1
    21    18    19    3
    22    15    16   ar
    23    16    17   ar
    24    10    11    1
    25    26    27   ar
    26    27    28   ar
    27    28    29   ar
    28    29    30   ar
    29    30    31    1
    30    31    32    1
    31    32    33    1
    32    33    34    2
    33    30    25   ar
    34     6     1    1
    35    17    12   ar
    36    33    29    1
    37    11     4    1
    38    22    23    1
@<TRIPOS>MOLECULE
*****
 34 38 0 0 0
SMALL
GASTEIGER

@<TRIPOS>ATOM
      1 N         143.0501  139.3610  163.5353 N.3     1  UNL1       -0.2704
      2 C         142.6891  138.0782  162.8467 C.3     1  UNL1        0.0722
      3 C         142.7266  137.9945  161.3495 C.3     1  UNL1        0.0195
      4 C         143.1252  139.1934  160.5410 C.3     1  UNL1        0.0300
      5 C         143.4862  140.4761  161.2297 C.3     1  UNL1        0.0195
      6 C         143.4487  140.5599  162.7268 C.3     1  UNL1        0.0722
      7 C         143.5021  140.3033  159.6050 C.3     1  UNL1        0.0874
      8 C         143.4023  139.7809  158.2024 C.2     1  UNL1        0.2304
      9 O         143.6904  140.5553  156.9505 O.2     1  UNL1       -0.2745
     10 N         142.9637  138.3480  158.2716 N.am    1  UNL1       -0.2439
     11 C         142.7924  137.9850  159.7169 C.3     1  UNL1        0.1001
     12 C         142.7363  137.4381  157.1011 C.ar    1  UNL1        0.1374
     13 C         141.3428  137.0205  156.7354 C.ar    1  UNL1        0.0354
     14 C         141.1154  136.1105  155.5648 C.ar    1  UNL1        0.0147
     15 C         142.2815  135.6182  154.7599 C.ar    1  UNL1        0.0877
     16 C         143.6751  136.0358  155.1256 C.ar    1  UNL1        0.1105
     17 N         143.9024  136.9458  156.2962 N.ar    1  UNL1       -0.2281
     18 C         142.0541  134.7082  153.5893 C.1     1  UNL1        0.1020
     19 N         141.8267  133.7982  152.4187 N.1     1  UNL1       -0.1908
     20 C         143.0125  139.4448  165.0326 C.3     1  UNL1        0.1063
     21 C         141.6952  139.4817  165.7489 C.3     1  UNL1        0.1483
     22 O         140.6405  138.4631  165.4323 O.3     1  UNL1       -0.3786
     23 H         139.8570  138.6280  165.9798 H       1  UNL1        0.2108
     24 C         142.7177  139.1296  168.5472 C.3     1  UNL1        0.0306
     25 C         141.9436  140.3612  168.1809 C.ar    1  UNL1       -0.0238
     26 C         141.4324  140.5372  166.7818 C.ar    1  UNL1        0.0015
     27 C         140.6583  141.7687  166.4155 C.ar    1  UNL1       -0.0020
     28 C         140.3955  142.8242  167.4484 C.ar    1  UNL1        0.0060
     29 C         140.9068  142.6482  168.8475 C.ar    1  UNL1        0.0748
     30 C         141.6808  141.4167  169.2137 C.ar    1  UNL1        0.0233
     31 C         142.0564  141.5191  170.6623 C.3     1  UNL1        0.2352
     32 O         141.5145  142.8138  171.1914 O.3     1  UNL1       -0.4404
     33 C         140.8040  143.5117  170.0697 C.2     1  UNL1        0.3413
     34 O         140.1121  144.8398  170.1552 O.2     1  UNL1       -0.2449
@<TRIPOS>BOND
     1    24    25    1
     2    25    26   ar
     3    26    21    1
     4    21    22    1
     5    21    20    1
     6    20     1    1
     7     1     2    1
     8     2     3    1
     9     3     4    1
    10     4     5    1
    11     5     6    1
    12     4     7    1
    13     7     8    1
    14     8     9    2
    15     8    10   am
    16    10    12    1
    17    12    13   ar
    18    13    14   ar
    19    14    15   ar
    20    15    18    1
    21    18    19    3
    22    15    16   ar
    23    16    17   ar
    24    10    11    1
    25    26    27   ar
    26    27    28   ar
    27    28    29   ar
    28    29    30   ar
    29    30    31    1
    30    31    32    1
    31    32    33    1
    32    33    34    2
    33    30    25   ar
    34     6     1    1
    35    17    12   ar
    36    33    29    1
    37    11     4    1
    38    22    23    1
@<TRIPOS>MOLECULE
*****
 34 38 0 0 0
SMALL
GASTEIGER

@<TRIPOS>ATOM
      1 N         143.0281  139.8426  163.0672 N.3     1  UNL1       -0.2704
      2 C         142.5460  138.4739  162.6872 C.3     1  UNL1        0.0722
      3 C         142.5461  138.0516  161.2479 C.3     1  UNL1        0.0195
      4 C         143.0281  138.9980  160.1886 C.3     1  UNL1        0.0300
      5 C         143.5102  140.3666  160.5686 C.3     1  UNL1        0.0195
      6 C         143.5102  140.7889  162.0079 C.3     1  UNL1        0.0722
      7 C         143.4785  139.8310  159.0253 C.3     1  UNL1        0.0874
      8 C         143.3065  139.0163  157.7776 C.2     1  UNL1        0.2304
      9 O         143.6337  139.4602  156.3826 O.2     1  UNL1       -0.2745
     10 N         142.7498  137.6797  158.1698 N.am    1  UNL1       -0.2439
     11 C         142.5778  137.6684  159.6598 C.3     1  UNL1        0.1001
     12 C         142.4227  136.5525  157.2359 C.ar    1  UNL1        0.1374
     13 C         141.3380  136.7168  156.2130 C.ar    1  UNL1        0.0354
     14 C         141.0108  135.5895  155.2791 C.ar    1  UNL1        0.0147
     15 C         141.7683  134.2979  155.3681 C.ar    1  UNL1        0.0877
     16 C         142.8531  134.1336  156.3911 C.ar    1  UNL1        0.1105
     17 N         143.1802  135.2609  157.3249 N.ar    1  UNL1       -0.2281
     18 C         141.4412  133.1706  154.4342 C.1     1  UNL1        0.1020
     19 N         141.1140  132.0433  153.5002 N.1     1  UNL1       -0.1908
     20 C         143.0281  140.2649  164.5066 C.3     1  UNL1        0.1063
     21 C         141.9992  141.2370  165.0029 C.3     1  UNL1        0.1483
     22 O         141.7159  142.4899  164.2284 O.3     1  UNL1       -0.3786
     23 H         141.0302  143.0033  164.6836 H       1  UNL1        0.2108
     24 C         143.0323  142.2948  167.6133 C.3     1  UNL1        0.0306
     25 C         141.7701  141.4850  167.5790 C.ar    1  UNL1       -0.0238
     26 C         141.2536  140.9561  166.2739 C.ar    1  UNL1        0.0015
     27 C         139.9914  140.1464  166.2396 C.ar    1  UNL1       -0.0020
     28 C         139.2457  139.8655  167.5104 C.ar    1  UNL1        0.0060
     29 C         139.7623  140.3944  168.8156 C.ar    1  UNL1        0.0748
     30 C         141.0245  141.2042  168.8499 C.ar    1  UNL1        0.0233
     31 C         141.2887  141.5905  170.2750 C.3     1  UNL1        0.2352
     32 O         140.1899  141.0196  171.1214 O.3     1  UNL1       -0.4404
     33 C         139.2465  140.2804  170.2195 C.2     1  UNL1        0.3413
     34 O         138.0052  139.5545  170.6464 O.2     1  UNL1       -0.2449
@<TRIPOS>BOND
     1    24    25    1
     2    25    26   ar
     3    26    21    1
     4    21    22    1
     5    21    20    1
     6    20     1    1
     7     1     2    1
     8     2     3    1
     9     3     4    1
    10     4     5    1
    11     5     6    1
    12     4     7    1
    13     7     8    1
    14     8     9    2
    15     8    10   am
    16    10    12    1
    17    12    13   ar
    18    13    14   ar
    19    14    15   ar
    20    15    18    1
    21    18    19    3
    22    15    16   ar
    23    16    17   ar
    24    10    11    1
    25    26    27   ar
    26    27    28   ar
    27    28    29   ar
    28    29    30   ar
    29    30    31    1
    30    31    32    1
    31    32    33    1
    32    33    34    2
    33    30    25   ar
    34     6     1    1
    35    17    12   ar
    36    33    29    1
    37    11     4    1
    38    22    23    1
@<TRIPOS>MOLECULE
*****
 34 38 0 0 0
SMALL
GASTEIGER

@<TRIPOS>ATOM
      1 N         141.6382  137.9744  157.6226 N.3     1  UNL1       -0.2704
      2 C         142.6442  138.0597  158.7320 C.3     1  UNL1        0.0722
      3 C         142.1909  138.3285  160.1363 C.3     1  UNL1        0.0195
      4 C         140.7317  138.5120  160.4313 C.3     1  UNL1        0.0300
      5 C         139.7257  138.4266  159.3220 C.3     1  UNL1        0.0195
      6 C         140.1790  138.1579  157.9176 C.3     1  UNL1        0.0722
      7 C         139.3138  138.7158  160.8764 C.3     1  UNL1        0.0874
      8 C         139.3225  138.9539  162.3574 C.2     1  UNL1        0.2304
      9 O         138.1193  139.2047  163.2172 O.2     1  UNL1       -0.2745
     10 N         140.7459  138.8973  162.8276 N.am    1  UNL1       -0.2439
     11 C         141.6167  138.6242  161.6373 C.3     1  UNL1        0.1001
     12 C         141.2157  139.0815  164.2401 C.ar    1  UNL1        0.1374
     13 C         142.4465  138.3708  164.7198 C.ar    1  UNL1        0.0354
     14 C         142.9164  138.5550  166.1323 C.ar    1  UNL1        0.0147
     15 C         142.1555  139.4498  167.0652 C.ar    1  UNL1        0.0877
     16 C         140.9246  140.1605  166.5856 C.ar    1  UNL1        0.1105
     17 N         140.4548  139.9763  165.1730 N.ar    1  UNL1       -0.2281
     18 C         142.6254  139.6340  168.4778 C.1     1  UNL1        0.1020
     19 N         143.0953  139.8182  169.8903 N.1     1  UNL1       -0.1908
     20 C         142.0915  137.7056  156.2182 C.3     1  UNL1        0.1063
     21 C         143.2644  136.8047  155.9681 C.3     1  UNL1        0.1483
     22 O         144.6223  137.3924  155.7212 O.3     1  UNL1       -0.3786
     23 H         145.2628  136.6780  155.5788 H       1  UNL1        0.2108
     24 C         142.2099  135.4294  153.5194 C.3     1  UNL1        0.0306
     25 C         142.5523  134.6285  154.7405 C.ar    1  UNL1       -0.0238
     26 C         143.0796  135.3161  155.9649 C.ar    1  UNL1        0.0015
     27 C         143.4221  134.5152  157.1861 C.ar    1  UNL1       -0.0020
     28 C         143.2373  133.0267  157.1829 C.ar    1  UNL1        0.0060
     29 C         142.7100  132.3391  155.9586 C.ar    1  UNL1        0.0748
     30 C         142.3675  133.1399  154.7374 C.ar    1  UNL1        0.0233
     31 C         141.8707  132.1924  153.6860 C.3     1  UNL1        0.2352
     32 O         141.9061  130.8060  154.2574 O.3     1  UNL1       -0.4404
     33 C         142.4248  130.8966  155.6619 C.2     1  UNL1        0.3413
     34 O         142.6235  129.7467  156.6043 O.2     1  UNL1       -0.2449
@<TRIPOS>BOND
     1    24    25    1
     2    25    26   ar
     3    26    21    1
     4    21    22    1
     5    21    20    1
     6    20     1    1
     7     1     2    1
     8     2     3    1
     9     3     4    1
    10     4     5    1
    11     5     6    1
    12     4     7    1
    13     7     8    1
    14     8     9    2
    15     8    10   am
    16    10    12    1
    17    12    13   ar
    18    13    14   ar
    19    14    15   ar
    20    15    18    1
    21    18    19    3
    22    15    16   ar
    23    16    17   ar
    24    10    11    1
    25    26    27   ar
    26    27    28   ar
    27    28    29   ar
    28    29    30   ar
    29    30    31    1
    30    31    32    1
    31    32    33    1
    32    33    34    2
    33    30    25   ar
    34     6     1    1
    35    17    12   ar
    36    33    29    1
    37    11     4    1
    38    22    23    1
@<TRIPOS>MOLECULE
*****
 34 38 0 0 0
SMALL
GASTEIGER

@<TRIPOS>ATOM
      1 N         140.9500  145.1375  159.0654 N.3     1  UNL1       -0.2704
      2 C         141.6972  143.9976  159.6918 C.3     1  UNL1        0.0722
      3 C         141.5000  143.6798  161.1444 C.3     1  UNL1        0.0195
      4 C         140.5557  144.5019  161.9706 C.3     1  UNL1        0.0300
      5 C         139.8085  145.6417  161.3441 C.3     1  UNL1        0.0195
      6 C         140.0057  145.9595  159.8915 C.3     1  UNL1        0.0722
      7 C         139.6497  145.2314  162.9177 C.3     1  UNL1        0.0874
      8 C         139.7640  144.5791  164.2637 C.2     1  UNL1        0.2304
      9 O         139.0305  144.9877  165.5066 O.2     1  UNL1       -0.2745
     10 N         140.7406  143.4464  164.1483 N.am    1  UNL1       -0.2439
     11 C         141.2299  143.3986  162.7312 C.3     1  UNL1        0.1001
     12 C         141.1552  142.5235  165.2557 C.ar    1  UNL1        0.1374
     13 C         142.5621  142.5591  165.7746 C.ar    1  UNL1        0.0354
     14 C         142.9766  141.6361  166.8820 C.ar    1  UNL1        0.0147
     15 C         141.9843  140.6776  167.4706 C.ar    1  UNL1        0.0877
     16 C         140.5772  140.6420  166.9517 C.ar    1  UNL1        0.1105
     17 N         140.1628  141.5650  165.8443 N.ar    1  UNL1       -0.2281
     18 C         142.3988  139.7547  168.5780 C.1     1  UNL1        0.1020
     19 N         142.8133  138.8318  169.6854 N.1     1  UNL1       -0.1908
     20 C         141.1471  145.4553  157.6127 C.3     1  UNL1        0.1063
     21 C         139.9580  145.6598  156.7216 C.3     1  UNL1        0.1483
     22 O         139.0542  144.5065  156.4006 O.3     1  UNL1       -0.3786
     23 H         138.3403  144.8078  155.8170 H       1  UNL1        0.2108
     24 C         140.9472  146.3743  153.9810 C.3     1  UNL1        0.0306
     25 C         140.1672  147.3749  154.7813 C.ar    1  UNL1       -0.0238
     26 C         139.6725  147.0176  156.1516 C.ar    1  UNL1        0.0015
     27 C         138.8925  148.0182  156.9518 C.ar    1  UNL1       -0.0020
     28 C         138.6070  149.3759  156.3818 C.ar    1  UNL1        0.0060
     29 C         139.1017  149.7332  155.0116 C.ar    1  UNL1        0.0748
     30 C         139.8817  148.7326  154.2113 C.ar    1  UNL1        0.0233
     31 C         140.2376  149.3652  152.8986 C.3     1  UNL1        0.2352
     32 O         139.6776  150.7567  152.8875 O.3     1  UNL1       -0.4404
     33 C         138.9755  150.9841  154.1934 C.2     1  UNL1        0.3413
     34 O         138.2709  152.2416  154.6084 O.2     1  UNL1       -0.2449
@<TRIPOS>BOND
     1    24    25    1
     2    25    26   ar
     3    26    21    1
     4    21    22    1
     5    21    20    1
     6    20     1    1
     7     1     2    1
     8     2     3    1
     9     3     4    1
    10     4     5    1
    11     5     6    1
    12     4     7    1
    13     7     8    1
    14     8     9    2
    15     8    10   am
    16    10    12    1
    17    12    13   ar
    18    13    14   ar
    19    14    15   ar
    20    15    18    1
    21    18    19    3
    22    15    16   ar
    23    16    17   ar
    24    10    11    1
    25    26    27   ar
    26    27    28   ar
    27    28    29   ar
    28    29    30   ar
    29    30    31    1
    30    31    32    1
    31    32    33    1
    32    33    34    2
    33    30    25   ar
    34     6     1    1
    35    17    12   ar
    36    33    29    1
    37    11     4    1
    38    22    23    1
