@<TRIPOS>MOLECULE
*****
 27 30 0 0 0
SMALL
GASTEIGER

@<TRIPOS>ATOM
      1 C         142.6669  139.4171  164.9916 C.2     1  UNL1        0.0674
      2 N         143.3578  138.6067  166.0479 N.2     1  UNL1       -0.1563
      3 N         142.9029  139.1063  167.3871 N.2     1  UNL1       -0.1523
      4 C         141.9307  140.2256  167.1584 C.2     1  UNL1        0.0895
      5 C         141.7849  140.4176  165.6779 C.3     1  UNL1        0.1020
      6 C         142.5905  137.6723  158.3433 C.3     1  UNL1        0.0948
      7 C         143.3171  138.7702  159.0621 C.2     1  UNL1        0.2261
      8 O         144.2062  139.7064  158.2985 O.2     1  UNL1       -0.2749
      9 N         143.1545  138.9319  160.5444 N.am    1  UNL1       -0.2795
     10 C         142.2654  137.9958  161.3080 C.3     1  UNL1        0.0938
     11 C         142.1029  138.1575  162.7904 C.3     1  UNL1        0.0272
     12 C         142.8294  139.2554  163.5092 C.3     1  UNL1        0.0420
     13 C         143.7185  140.1915  162.7456 C.3     1  UNL1        0.0272
     14 C         143.8811  140.0298  161.2633 C.3     1  UNL1        0.0938
     15 C         141.2278  141.0143  168.2232 C.ar    1  UNL1        0.0161
     16 C         140.0465  140.4256  168.9360 C.ar    1  UNL1        0.0036
     17 C         139.3436  141.2143  170.0007 C.ar    1  UNL1        0.0297
     18 C         139.8220  142.5917  170.3528 C.ar    1  UNL1        0.1401
     19 F         139.1191  143.3805  171.4176 F       1  UNL1       -0.2042
     20 C         141.0032  143.1803  169.6400 C.ar    1  UNL1        0.0297
     21 C         141.7061  142.3916  168.5752 C.ar    1  UNL1        0.0036
     22 C         140.9105  141.4320  165.0023 C.ar    1  UNL1       -0.0084
     23 C         139.5155  141.0647  164.5908 C.ar    1  UNL1        0.0171
     24 C         138.6412  142.0792  163.9153 C.ar    1  UNL1        0.0986
     25 N         139.1617  143.4609  163.6512 N.ar    1  UNL1       -0.2423
     26 C         140.5566  143.8282  164.0627 C.ar    1  UNL1        0.0986
     27 C         141.4310  142.8138  164.7382 C.ar    1  UNL1        0.0171
@<TRIPOS>BOND
     1     6     7    1
     2     7     8    2
     3     7     9   am
     4     9    10    1
     5    10    11    1
     6    11    12    1
     7    12     1    1
     8     1     2    2
     9     2     3    1
    10     3     4    2
    11     4    15    1
    12    15    16   ar
    13    16    17   ar
    14    17    18   ar
    15    18    19    1
    16    18    20   ar
    17    20    21   ar
    18     4     5    1
    19     5    22    1
    20    22    23   ar
    21    23    24   ar
    22    24    25   ar
    23    25    26   ar
    24    26    27   ar
    25    12    13    1
    26    13    14    1
    27    14     9    1
    28     5     1    1
    29    27    22   ar
    30    21    15   ar
@<TRIPOS>MOLECULE
*****
 27 30 0 0 0
SMALL
GASTEIGER

@<TRIPOS>ATOM
      1 C         142.6691  139.3941  164.9360 C.2     1  UNL1        0.0674
      2 N         143.3647  138.5823  165.9882 N.2     1  UNL1       -0.1563
      3 N         142.9164  139.0809  167.3300 N.2     1  UNL1       -0.1523
      4 C         141.9437  140.2008  167.1071 C.2     1  UNL1        0.0895
      5 C         141.7909  140.3944  165.6275 C.3     1  UNL1        0.1020
      6 C         142.5651  137.6517  158.2874 C.3     1  UNL1        0.0948
      7 C         143.2904  138.7527  159.0028 C.2     1  UNL1        0.2261
      8 O         144.1709  139.6934  158.2348 O.2     1  UNL1       -0.2749
      9 N         143.1350  138.9131  160.4861 N.am    1  UNL1       -0.2795
     10 C         142.2545  137.9724  161.2540 C.3     1  UNL1        0.0938
     11 C         142.0992  138.1328  162.7373 C.3     1  UNL1        0.0272
     12 C         142.8244  139.2337  163.4527 C.3     1  UNL1        0.0420
     13 C         143.7049  140.1744  162.6847 C.3     1  UNL1        0.0272
     14 C         143.8603  140.0141  161.2014 C.3     1  UNL1        0.0938
     15 C         141.2463  140.9888  168.1760 C.ar    1  UNL1        0.0161
     16 C         141.7295  142.3641  168.5299 C.ar    1  UNL1        0.0036
     17 C         141.0321  143.1520  169.5989 C.ar    1  UNL1        0.0297
     18 C         139.8515  142.5647  170.3139 C.ar    1  UNL1        0.1401
     19 F         139.1540  143.3527  171.3829 F       1  UNL1       -0.2042
     20 C         139.3683  141.1896  169.9601 C.ar    1  UNL1        0.0297
     21 C         140.0657  140.4016  168.8911 C.ar    1  UNL1        0.0036
     22 C         140.9138  141.4099  164.9571 C.ar    1  UNL1       -0.0084
     23 C         141.4286  142.7963  164.7057 C.ar    1  UNL1        0.0171
     24 C         140.5515  143.8119  164.0354 C.ar    1  UNL1        0.0986
     25 N         139.1597  143.4412  163.6164 N.ar    1  UNL1       -0.2423
     26 C         138.6450  142.0549  163.8679 C.ar    1  UNL1        0.0986
     27 C         139.5221  141.0393  164.5382 C.ar    1  UNL1        0.0171
@<TRIPOS>BOND
     1     6     7    1
     2     7     8    2
     3     7     9   am
     4     9    10    1
     5    10    11    1
     6    11    12    1
     7    12     1    1
     8     1     2    2
     9     2     3    1
    10     3     4    2
    11     4    15    1
    12    15    16   ar
    13    16    17   ar
    14    17    18   ar
    15    18    19    1
    16    18    20   ar
    17    20    21   ar
    18     4     5    1
    19     5    22    1
    20    22    23   ar
    21    23    24   ar
    22    24    25   ar
    23    25    26   ar
    24    26    27   ar
    25    12    13    1
    26    13    14    1
    27    14     9    1
    28     5     1    1
    29    27    22   ar
    30    21    15   ar
@<TRIPOS>MOLECULE
*****
 27 30 0 0 0
SMALL
GASTEIGER

@<TRIPOS>ATOM
      1 C         139.5375  140.2277  164.9998 C.2     1  UNL1        0.0674
      2 N         138.8975  139.3884  166.0657 N.2     1  UNL1       -0.1563
      3 N         139.4337  139.8366  167.3929 N.2     1  UNL1       -0.1523
      4 C         140.4051  140.9529  167.1474 C.2     1  UNL1        0.0895
      5 C         140.4692  141.1946  165.6684 C.3     1  UNL1        0.1020
      6 C         139.6026  139.2254  158.1998 C.3     1  UNL1        0.0948
      7 C         138.5447  139.7936  159.0985 C.2     1  UNL1        0.2261
      8 O         137.2385  140.2534  158.5219 O.2     1  UNL1       -0.2749
      9 N         138.7929  139.9022  160.5738 N.am    1  UNL1       -0.2795
     10 C         140.0990  139.4424  161.1504 C.3     1  UNL1        0.0938
     11 C         140.3472  139.5509  162.6258 C.3     1  UNL1        0.0272
     12 C         139.2893  140.1192  163.5245 C.3     1  UNL1        0.0420
     13 C         137.9831  140.5790  162.9479 C.3     1  UNL1        0.0272
     14 C         137.7349  140.4704  161.4725 C.3     1  UNL1        0.0938
     15 C         141.1768  141.6969  168.1966 C.ar    1  UNL1        0.0161
     16 C         140.5303  142.8250  168.9445 C.ar    1  UNL1        0.0036
     17 C         141.3021  143.5689  169.9937 C.ar    1  UNL1        0.0297
     18 C         142.7204  143.1848  170.2950 C.ar    1  UNL1        0.1401
     19 F         143.4922  143.9288  171.3443 F       1  UNL1       -0.2042
     20 C         143.3669  142.0567  169.5472 C.ar    1  UNL1        0.0297
     21 C         142.5951  141.3127  168.4980 C.ar    1  UNL1        0.0036
     22 C         141.3163  142.2228  164.9790 C.ar    1  UNL1       -0.0084
     23 C         142.7487  141.9186  164.6536 C.ar    1  UNL1        0.0171
     24 C         143.5959  142.9468  163.9642 C.ar    1  UNL1        0.0986
     25 N         143.0107  144.2791  163.6002 N.ar    1  UNL1       -0.2423
     26 C         141.5783  144.5832  163.9256 C.ar    1  UNL1        0.0986
     27 C         140.7312  143.5551  164.6150 C.ar    1  UNL1        0.0171
@<TRIPOS>BOND
     1     6     7    1
     2     7     8    2
     3     7     9   am
     4     9    10    1
     5    10    11    1
     6    11    12    1
     7    12     1    1
     8     1     2    2
     9     2     3    1
    10     3     4    2
    11     4    15    1
    12    15    16   ar
    13    16    17   ar
    14    17    18   ar
    15    18    19    1
    16    18    20   ar
    17    20    21   ar
    18     4     5    1
    19     5    22    1
    20    22    23   ar
    21    23    24   ar
    22    24    25   ar
    23    25    26   ar
    24    26    27   ar
    25    12    13    1
    26    13    14    1
    27    14     9    1
    28     5     1    1
    29    27    22   ar
    30    21    15   ar
@<TRIPOS>MOLECULE
*****
 27 30 0 0 0
SMALL
GASTEIGER

@<TRIPOS>ATOM
      1 C         139.4146  140.4752  164.6261 C.2     1  UNL1        0.0674
      2 N         138.7139  139.6369  165.6538 N.2     1  UNL1       -0.1563
      3 N         139.2432  140.0202  167.0040 N.2     1  UNL1       -0.1523
      4 C         140.2710  141.0955  166.8107 C.2     1  UNL1        0.0895
      5 C         140.3769  141.3767  165.3411 C.3     1  UNL1        0.1020
      6 C         137.8281  141.3925  158.0010 C.3     1  UNL1        0.0948
      7 C         138.5244  140.2605  158.6964 C.2     1  UNL1        0.2261
      8 O         138.9982  139.0748  157.9093 O.2     1  UNL1       -0.2749
      9 N         138.7470  140.3142  160.1788 N.am    1  UNL1       -0.2795
     10 C         138.2732  141.4999  160.9659 C.3     1  UNL1        0.0938
     11 C         138.4957  141.5536  162.4483 C.3     1  UNL1        0.0272
     12 C         139.1921  140.4215  163.1436 C.3     1  UNL1        0.0420
     13 C         139.6659  139.2358  162.3566 C.3     1  UNL1        0.0272
     14 C         139.4433  139.1821  160.8741 C.3     1  UNL1        0.0938
     15 C         141.0552  141.7710  167.8964 C.ar    1  UNL1        0.0161
     16 C         140.3860  142.7677  168.7958 C.ar    1  UNL1        0.0036
     17 C         141.1703  143.4431  169.8815 C.ar    1  UNL1        0.0297
     18 C         142.6236  143.1219  170.0677 C.ar    1  UNL1        0.1401
     19 F         143.4078  143.7974  171.1535 F       1  UNL1       -0.2042
     20 C         143.2926  142.1253  169.1684 C.ar    1  UNL1        0.0297
     21 C         142.5085  141.4498  168.0827 C.ar    1  UNL1        0.0036
     22 C         141.2857  142.3828  164.6993 C.ar    1  UNL1       -0.0084
     23 C         140.8611  143.8178  164.5946 C.ar    1  UNL1        0.0171
     24 C         141.7698  144.8239  163.9528 C.ar    1  UNL1        0.0986
     25 N         143.1031  144.3951  163.4156 N.ar    1  UNL1       -0.2423
     26 C         143.5276  142.9602  163.5202 C.ar    1  UNL1        0.0986
     27 C         142.6188  141.9541  164.1620 C.ar    1  UNL1        0.0171
@<TRIPOS>BOND
     1     6     7    1
     2     7     8    2
     3     7     9   am
     4     9    10    1
     5    10    11    1
     6    11    12    1
     7    12     1    1
     8     1     2    2
     9     2     3    1
    10     3     4    2
    11     4    15    1
    12    15    16   ar
    13    16    17   ar
    14    17    18   ar
    15    18    19    1
    16    18    20   ar
    17    20    21   ar
    18     4     5    1
    19     5    22    1
    20    22    23   ar
    21    23    24   ar
    22    24    25   ar
    23    25    26   ar
    24    26    27   ar
    25    12    13    1
    26    13    14    1
    27    14     9    1
    28     5     1    1
    29    27    22   ar
    30    21    15   ar
@<TRIPOS>MOLECULE
*****
 27 30 0 0 0
SMALL
GASTEIGER

@<TRIPOS>ATOM
      1 C         140.6008  143.3792  164.6751 C.2     1  UNL1        0.0674
      2 N         139.5455  143.8666  165.6232 N.2     1  UNL1       -0.1563
      3 N         139.8444  143.3011  166.9800 N.2     1  UNL1       -0.1523
      4 C         141.0844  142.4641  166.8705 C.2     1  UNL1        0.0895
      5 C         141.5518  142.5124  165.4460 C.3     1  UNL1        0.1020
      6 C         140.0026  144.0329  157.8586 C.3     1  UNL1        0.0948
      7 C         140.9553  144.6699  158.8264 C.2     1  UNL1        0.2261
      8 O         141.9966  145.6296  158.3319 O.2     1  UNL1       -0.2749
      9 N         140.8667  144.3472  160.2886 N.am    1  UNL1       -0.2795
     10 C         139.8254  143.3875  160.7830 C.3     1  UNL1        0.0938
     11 C         139.7367  143.0648  162.2452 C.3     1  UNL1        0.0272
     12 C         140.6894  143.7019  163.2129 C.3     1  UNL1        0.0420
     13 C         141.7307  144.6616  162.7185 C.3     1  UNL1        0.0272
     14 C         141.8194  144.9843  161.2563 C.3     1  UNL1        0.0938
     15 C         141.7415  141.7111  167.9890 C.ar    1  UNL1        0.0161
     16 C         141.3226  140.3033  168.2932 C.ar    1  UNL1        0.0036
     17 C         141.9798  139.5503  169.4117 C.ar    1  UNL1        0.0297
     18 C         143.0558  140.2052  170.2261 C.ar    1  UNL1        0.1401
     19 F         143.7131  139.4522  171.3447 F       1  UNL1       -0.2042
     20 C         143.4747  141.6130  169.9220 C.ar    1  UNL1        0.0297
     21 C         142.8175  142.3660  168.8034 C.ar    1  UNL1        0.0036
     22 C         142.7585  141.8161  164.8900 C.ar    1  UNL1       -0.0084
     23 C         144.0510  142.5621  164.7375 C.ar    1  UNL1        0.0171
     24 C         145.2577  141.8658  164.1815 C.ar    1  UNL1        0.0986
     25 N         145.1719  140.4237  163.7780 N.ar    1  UNL1       -0.2423
     26 C         143.8795  139.6778  163.9306 C.ar    1  UNL1        0.0986
     27 C         142.6729  140.3740  164.4866 C.ar    1  UNL1        0.0171
@<TRIPOS>BOND
     1     6     7    1
     2     7     8    2
     3     7     9   am
     4     9    10    1
     5    10    11    1
     6    11    12    1
     7    12     1    1
     8     1     2    2
     9     2     3    1
    10     3     4    2
    11     4    15    1
    12    15    16   ar
    13    16    17   ar
    14    17    18   ar
    15    18    19    1
    16    18    20   ar
    17    20    21   ar
    18     4     5    1
    19     5    22    1
    20    22    23   ar
    21    23    24   ar
    22    24    25   ar
    23    25    26   ar
    24    26    27   ar
    25    12    13    1
    26    13    14    1
    27    14     9    1
    28     5     1    1
    29    27    22   ar
    30    21    15   ar
@<TRIPOS>MOLECULE
*****
 27 30 0 0 0
SMALL
GASTEIGER

@<TRIPOS>ATOM
      1 C         139.7134  139.1067  163.2310 C.2     1  UNL1        0.0674
      2 N         140.0986  137.7219  163.6597 N.2     1  UNL1       -0.1563
      3 N         140.4224  137.7631  165.1237 N.2     1  UNL1       -0.1523
      4 C         140.2373  139.1734  165.5999 C.2     1  UNL1        0.0895
      5 C         139.7990  140.0038  164.4301 C.3     1  UNL1        0.1020
      6 C         139.1467  141.2689  156.7307 C.3     1  UNL1        0.0948
      7 C         138.1109  140.7664  157.6922 C.2     1  UNL1        0.2261
      8 O         136.6746  140.6789  157.2691 O.2     1  UNL1       -0.2749
      9 N         138.5115  140.3515  159.0769 N.am    1  UNL1       -0.2795
     10 C         139.9479  140.4391  159.5000 C.3     1  UNL1        0.0938
     11 C         140.3485  140.0241  160.8847 C.3     1  UNL1        0.0272
     12 C         139.3128  139.5216  161.8463 C.3     1  UNL1        0.0420
     13 C         137.8764  139.4341  161.4231 C.3     1  UNL1        0.0272
     14 C         137.4758  139.8490  160.0385 C.3     1  UNL1        0.0938
     15 C         140.4525  139.6667  167.0000 C.ar    1  UNL1        0.0161
     16 C         139.2754  139.9311  167.8913 C.ar    1  UNL1        0.0036
     17 C         139.4907  140.4244  169.2914 C.ar    1  UNL1        0.0297
     18 C         140.8831  140.6533  169.8001 C.ar    1  UNL1        0.1401
     19 F         141.0984  141.1466  171.2003 F       1  UNL1       -0.2042
     20 C         142.0602  140.3889  168.9089 C.ar    1  UNL1        0.0297
     21 C         141.8449  139.8956  167.5087 C.ar    1  UNL1        0.0036
     22 C         139.4992  141.4733  164.4551 C.ar    1  UNL1       -0.0084
     23 C         138.0764  141.9482  164.4754 C.ar    1  UNL1        0.0171
     24 C         137.7765  143.4177  164.5004 C.ar    1  UNL1        0.0986
     25 N         138.8993  144.4123  164.5051 N.ar    1  UNL1       -0.2423
     26 C         140.3220  143.9374  164.4849 C.ar    1  UNL1        0.0986
     27 C         140.6219  142.4679  164.4599 C.ar    1  UNL1        0.0171
@<TRIPOS>BOND
     1     6     7    1
     2     7     8    2
     3     7     9   am
     4     9    10    1
     5    10    11    1
     6    11    12    1
     7    12     1    1
     8     1     2    2
     9     2     3    1
    10     3     4    2
    11     4    15    1
    12    15    16   ar
    13    16    17   ar
    14    17    18   ar
    15    18    19    1
    16    18    20   ar
    17    20    21   ar
    18     4     5    1
    19     5    22    1
    20    22    23   ar
    21    23    24   ar
    22    24    25   ar
    23    25    26   ar
    24    26    27   ar
    25    12    13    1
    26    13    14    1
    27    14     9    1
    28     5     1    1
    29    27    22   ar
    30    21    15   ar
@<TRIPOS>MOLECULE
*****
 27 30 0 0 0
SMALL
GASTEIGER

@<TRIPOS>ATOM
      1 C         140.8347  139.8705  165.4702 C.2     1  UNL1        0.0674
      2 N         141.1090  138.4463  165.0877 N.2     1  UNL1       -0.1563
      3 N         140.6070  138.2368  163.6898 N.2     1  UNL1       -0.1523
      4 C         140.0224  139.5316  163.2083 C.2     1  UNL1        0.0895
      5 C         140.1631  140.5412  164.3087 C.3     1  UNL1        0.1020
      6 C         143.3517  143.3737  170.8221 C.3     1  UNL1        0.0948
      7 C         142.1865  142.4343  170.7237 C.2     1  UNL1        0.2261
      8 O         141.3592  142.1358  171.9388 O.2     1  UNL1       -0.2749
      9 N         141.8485  141.7933  169.4103 N.am    1  UNL1       -0.2795
     10 C         142.6758  142.0918  168.1953 C.3     1  UNL1        0.0938
     11 C         142.3379  141.4508  166.8819 C.3     1  UNL1        0.0272
     12 C         141.1727  140.5114  166.7836 C.3     1  UNL1        0.0420
     13 C         140.3454  140.2130  167.9986 C.3     1  UNL1        0.0272
     14 C         140.6833  140.8539  169.3120 C.3     1  UNL1        0.0938
     15 C         139.4054  139.7741  161.8628 C.ar    1  UNL1        0.0161
     16 C         140.2698  140.1642  160.7006 C.ar    1  UNL1        0.0036
     17 C         139.6527  140.4067  159.3552 C.ar    1  UNL1        0.0297
     18 C         138.1713  140.2592  159.1718 C.ar    1  UNL1        0.1401
     19 F         137.5542  140.5017  157.8262 F       1  UNL1       -0.2042
     20 C         137.3070  139.8691  160.3339 C.ar    1  UNL1        0.0297
     21 C         137.9240  139.6266  161.6795 C.ar    1  UNL1        0.0036
     22 C         139.7116  141.9707  164.2566 C.ar    1  UNL1       -0.0084
     23 C         138.2844  142.3180  164.5612 C.ar    1  UNL1        0.0171
     24 C         137.8328  143.7475  164.5092 C.ar    1  UNL1        0.0986
     25 N         138.8084  144.8297  164.1525 N.ar    1  UNL1       -0.2423
     26 C         140.2354  144.4824  163.8480 C.ar    1  UNL1        0.0986
     27 C         140.6870  143.0529  163.9000 C.ar    1  UNL1        0.0171
@<TRIPOS>BOND
     1     6     7    1
     2     7     8    2
     3     7     9   am
     4     9    10    1
     5    10    11    1
     6    11    12    1
     7    12     1    1
     8     1     2    2
     9     2     3    1
    10     3     4    2
    11     4    15    1
    12    15    16   ar
    13    16    17   ar
    14    17    18   ar
    15    18    19    1
    16    18    20   ar
    17    20    21   ar
    18     4     5    1
    19     5    22    1
    20    22    23   ar
    21    23    24   ar
    22    24    25   ar
    23    25    26   ar
    24    26    27   ar
    25    12    13    1
    26    13    14    1
    27    14     9    1
    28     5     1    1
    29    27    22   ar
    30    21    15   ar
@<TRIPOS>MOLECULE
*****
 27 30 0 0 0
SMALL
GASTEIGER

@<TRIPOS>ATOM
      1 C         142.3538  143.2219  163.5449 C.2     1  UNL1        0.0674
      2 N         143.5760  143.3539  164.4044 N.2     1  UNL1       -0.1563
      3 N         143.2350  142.8504  165.7756 N.2     1  UNL1       -0.1523
      4 C         141.8021  142.4072  165.7635 C.2     1  UNL1        0.0895
      5 C         141.2575  142.6368  164.3849 C.3     1  UNL1        0.1020
      6 C         141.0240  145.8897  157.3510 C.3     1  UNL1        0.0948
      7 C         141.9256  144.7637  157.7622 C.2     1  UNL1        0.2261
      8 O         142.7202  144.0231  156.7277 O.2     1  UNL1       -0.2749
      9 N         142.0327  144.3783  159.2079 N.am    1  UNL1       -0.2795
     10 C         141.2381  145.1188  160.2423 C.3     1  UNL1        0.0938
     11 C         141.3451  144.7334  161.6880 C.3     1  UNL1        0.0272
     12 C         142.2468  143.6074  162.0992 C.3     1  UNL1        0.0420
     13 C         143.0414  142.8668  161.0647 C.3     1  UNL1        0.0272
     14 C         142.9343  143.2523  159.6191 C.3     1  UNL1        0.0938
     15 C         141.0464  141.8348  166.9260 C.ar    1  UNL1        0.0161
     16 C         140.4999  140.4399  166.8518 C.ar    1  UNL1        0.0036
     17 C         139.7442  139.8676  168.0142 C.ar    1  UNL1        0.0297
     18 C         139.5350  140.6902  169.2509 C.ar    1  UNL1        0.1401
     19 F         138.7792  140.1179  170.4135 F       1  UNL1       -0.2042
     20 C         140.0814  142.0851  169.3252 C.ar    1  UNL1        0.0297
     21 C         140.8371  142.6575  168.1627 C.ar    1  UNL1        0.0036
     22 C         139.8615  142.3344  163.9267 C.ar    1  UNL1       -0.0084
     23 C         139.5822  141.0828  163.1483 C.ar    1  UNL1        0.0171
     24 C         138.1863  140.7804  162.6901 C.ar    1  UNL1        0.0986
     25 N         137.0697  141.7295  163.0103 N.ar    1  UNL1       -0.2423
     26 C         137.3490  142.9809  163.7886 C.ar    1  UNL1        0.0986
     27 C         138.7449  143.2833  164.2468 C.ar    1  UNL1        0.0171
@<TRIPOS>BOND
     1     6     7    1
     2     7     8    2
     3     7     9   am
     4     9    10    1
     5    10    11    1
     6    11    12    1
     7    12     1    1
     8     1     2    2
     9     2     3    1
    10     3     4    2
    11     4    15    1
    12    15    16   ar
    13    16    17   ar
    14    17    18   ar
    15    18    19    1
    16    18    20   ar
    17    20    21   ar
    18     4     5    1
    19     5    22    1
    20    22    23   ar
    21    23    24   ar
    22    24    25   ar
    23    25    26   ar
    24    26    27   ar
    25    12    13    1
    26    13    14    1
    27    14     9    1
    28     5     1    1
    29    27    22   ar
    30    21    15   ar
@<TRIPOS>MOLECULE
*****
 27 30 0 0 0
SMALL
GASTEIGER

@<TRIPOS>ATOM
      1 C         143.2361  141.5714  164.0781 C.2     1  UNL1        0.0674
      2 N         144.0139  142.5664  164.8874 N.2     1  UNL1       -0.1563
      3 N         143.5956  142.4262  166.3210 N.2     1  UNL1       -0.1523
      4 C         142.5592  141.3445  166.3978 C.2     1  UNL1        0.0895
      5 C         142.3371  140.8162  165.0115 C.3     1  UNL1        0.1020
      6 C         143.0870  141.7812  157.2090 C.3     1  UNL1        0.0948
      7 C         143.6488  140.7553  158.1481 C.2     1  UNL1        0.2261
      8 O         144.3137  139.5255  157.6048 O.2     1  UNL1       -0.2749
      9 N         143.5456  140.9593  159.6306 N.am    1  UNL1       -0.2795
     10 C         142.8806  142.1892  160.1740 C.3     1  UNL1        0.0938
     11 C         142.7775  142.3932  161.6564 C.3     1  UNL1        0.0272
     12 C         143.3393  141.3674  162.5956 C.3     1  UNL1        0.0420
     13 C         144.0042  140.1375  162.0522 C.3     1  UNL1        0.0272
     14 C         144.1074  139.9335  160.5697 C.3     1  UNL1        0.0938
     15 C         141.8666  140.8737  167.6422 C.ar    1  UNL1        0.0161
     16 C         140.4802  141.3528  167.9559 C.ar    1  UNL1        0.0036
     17 C         139.7876  140.8820  169.2003 C.ar    1  UNL1        0.0297
     18 C         140.4814  139.9321  170.1310 C.ar    1  UNL1        0.1401
     19 F         139.7888  139.4613  171.3755 F       1  UNL1       -0.2042
     20 C         141.8677  139.4530  169.8174 C.ar    1  UNL1        0.0297
     21 C         142.5604  139.9238  168.5729 C.ar    1  UNL1        0.0036
     22 C         141.3833  139.7244  164.6264 C.ar    1  UNL1       -0.0084
     23 C         141.8290  138.2925  164.6607 C.ar    1  UNL1        0.0171
     24 C         140.8753  137.2007  164.2756 C.ar    1  UNL1        0.0986
     25 N         139.4758  137.5407  163.8562 N.ar    1  UNL1       -0.2423
     26 C         139.0301  138.9725  163.8220 C.ar    1  UNL1        0.0986
     27 C         139.9839  140.0643  164.2071 C.ar    1  UNL1        0.0171
@<TRIPOS>BOND
     1     6     7    1
     2     7     8    2
     3     7     9   am
     4     9    10    1
     5    10    11    1
     6    11    12    1
     7    12     1    1
     8     1     2    2
     9     2     3    1
    10     3     4    2
    11     4    15    1
    12    15    16   ar
    13    16    17   ar
    14    17    18   ar
    15    18    19    1
    16    18    20   ar
    17    20    21   ar
    18     4     5    1
    19     5    22    1
    20    22    23   ar
    21    23    24   ar
    22    24    25   ar
    23    25    26   ar
    24    26    27   ar
    25    12    13    1
    26    13    14    1
    27    14     9    1
    28     5     1    1
    29    27    22   ar
    30    21    15   ar
