@<TRIPOS>MOLECULE
*****
 29 32 0 0 0
SMALL
GASTEIGER

@<TRIPOS>ATOM
      1 C         142.9481  141.5654  165.4953 C.ar    1  UNL1        0.0004
      2 C         142.9815  140.1010  165.8190 C.ar    1  UNL1       -0.0022
      3 C         141.8349  139.4682  166.5504 C.ar    1  UNL1        0.0043
      4 C         140.6549  140.2997  166.9580 C.ar    1  UNL1        0.0536
      5 C         140.6215  141.7639  166.6344 C.ar    1  UNL1        0.0043
      6 C         141.7680  142.3968  165.9031 C.ar    1  UNL1       -0.0022
      7 C         139.5083  139.6668  167.6894 C.2     1  UNL1        0.2491
      8 O         139.4686  139.6936  169.1886 O.2     1  UNL1       -0.2699
      9 N         138.4014  139.0071  166.9214 N.am    1  UNL1       -0.2745
     10 C         137.2548  138.3743  167.6528 C.3     1  UNL1        0.1151
     11 C         138.4410  138.9804  165.4222 C.3     1  UNL1        0.0930
     12 C         138.9343  137.8463  164.5734 C.3     1  UNL1        0.0386
     13 C         138.7925  138.2481  163.1351 C.3     1  UNL1        0.0738
     14 N         138.2116  139.6305  163.0951 N.3     1  UNL1       -0.2725
     15 C         137.9944  140.0831  164.5086 C.3     1  UNL1        0.0921
     16 C         137.9023  140.4214  161.8587 C.3     1  UNL1        0.0576
     17 C         137.5549  139.7132  160.5828 C.3     1  UNL1        0.0173
     18 C         137.9404  141.9204  161.8981 C.3     1  UNL1        0.0173
     19 C         144.0946  142.1981  164.7640 C.3     1  UNL1        0.1339
     20 C         143.7982  145.1541  163.4134 C.3     1  UNL1        0.0719
     21 C         143.8431  143.8484  162.6764 C.ar    1  UNL1        0.1210
     22 N         143.7596  143.6721  161.1891 N.ar    1  UNL1       -0.2309
     23 C         143.8443  142.2045  160.8907 C.ar    1  UNL1        0.0983
     24 C         143.8154  141.4392  159.6010 C.ar    1  UNL1        0.0206
     25 C         143.9222  139.9431  159.6142 C.ar    1  UNL1        0.0016
     26 C         144.0580  139.2123  160.9171 C.ar    1  UNL1        0.0016
     27 C         144.0870  139.9776  162.2068 C.ar    1  UNL1        0.0188
     28 C         143.9801  141.4737  162.1936 C.ar    1  UNL1        0.0789
     29 N         143.9794  142.4897  163.2972 N.ar    1  UNL1       -0.3106
@<TRIPOS>BOND
     1    20    21    1
     2    21    22   ar
     3    22    23   ar
     4    23    24   ar
     5    24    25   ar
     6    25    26   ar
     7    26    27   ar
     8    27    28   ar
     9    28    29   ar
    10    29    19    1
    11    19     1    1
    12     1     2   ar
    13     2     3   ar
    14     3     4   ar
    15     4     7    1
    16     7     8    2
    17     7     9   am
    18     9    10    1
    19    11     9    1
    20    11    12    1
    21    12    13    1
    22    13    14    1
    23    14    16    1
    24    16    17    1
    25    16    18    1
    26    14    15    1
    27     4     5   ar
    28     5     6   ar
    29    29    21   ar
    30     6     1   ar
    31    28    23   ar
    32    15    11    1
@<TRIPOS>MOLECULE
*****
 29 32 0 0 0
SMALL
GASTEIGER

@<TRIPOS>ATOM
      1 C         138.1502  141.2623  164.4583 C.ar    1  UNL1        0.0004
      2 C         138.9374  142.2654  165.2483 C.ar    1  UNL1       -0.0022
      3 C         139.6635  141.8395  166.4899 C.ar    1  UNL1        0.0043
      4 C         139.6023  140.4103  166.9414 C.ar    1  UNL1        0.0536
      5 C         138.8151  139.4073  166.1515 C.ar    1  UNL1        0.0043
      6 C         138.0890  139.8332  164.9100 C.ar    1  UNL1       -0.0022
      7 C         140.3283  139.9844  168.1830 C.2     1  UNL1        0.2491
      8 O         139.5667  139.7478  169.4534 O.2     1  UNL1       -0.2699
      9 N         141.8161  139.7951  168.1541 N.am    1  UNL1       -0.2745
     10 C         142.5422  139.3692  169.3957 C.3     1  UNL1        0.1151
     11 C         142.5778  140.0317  166.8837 C.3     1  UNL1        0.0930
     12 C         142.8544  139.0124  165.8187 C.3     1  UNL1        0.0386
     13 C         143.6441  139.6799  164.7321 C.3     1  UNL1        0.0738
     14 N         143.8556  141.1119  165.1256 N.3     1  UNL1       -0.2725
     15 C         143.1966  141.3293  166.4554 C.3     1  UNL1        0.0921
     16 C         144.5961  142.1449  164.3292 C.3     1  UNL1        0.0576
     17 C         145.7139  141.7307  163.4187 C.3     1  UNL1        0.0173
     18 C         144.2189  143.5923  164.4431 C.3     1  UNL1        0.0173
     19 C         137.4242  141.6882  163.2168 C.3     1  UNL1        0.1339
     20 C         137.8987  139.6724  160.6947 C.3     1  UNL1        0.0719
     21 C         138.4121  141.0772  160.8094 C.ar    1  UNL1        0.1210
     22 N         139.2337  141.8020  159.7850 N.ar    1  UNL1       -0.2309
     23 C         139.5234  143.1765  160.3111 C.ar    1  UNL1        0.0983
     24 C         140.2893  144.3307  159.7356 C.ar    1  UNL1        0.0206
     25 C         140.4126  145.6095  160.5098 C.ar    1  UNL1        0.0016
     26 C         139.7700  145.7342  161.8594 C.ar    1  UNL1        0.0016
     27 C         139.0041  144.5800  162.4349 C.ar    1  UNL1        0.0188
     28 C         138.8808  143.3012  161.6607 C.ar    1  UNL1        0.0789
     29 N         138.1940  142.0037  161.9687 N.ar    1  UNL1       -0.3106
@<TRIPOS>BOND
     1    20    21    1
     2    21    22   ar
     3    22    23   ar
     4    23    24   ar
     5    24    25   ar
     6    25    26   ar
     7    26    27   ar
     8    27    28   ar
     9    28    29   ar
    10    29    19    1
    11    19     1    1
    12     1     2   ar
    13     2     3   ar
    14     3     4   ar
    15     4     7    1
    16     7     8    2
    17     7     9   am
    18     9    10    1
    19    11     9    1
    20    11    12    1
    21    12    13    1
    22    13    14    1
    23    14    16    1
    24    16    17    1
    25    16    18    1
    26    14    15    1
    27     4     5   ar
    28     5     6   ar
    29    29    21   ar
    30     6     1   ar
    31    28    23   ar
    32    15    11    1
@<TRIPOS>MOLECULE
*****
 29 32 0 0 0
SMALL
GASTEIGER

@<TRIPOS>ATOM
      1 C         142.3576  142.3419  165.5459 C.ar    1  UNL1        0.0004
      2 C         140.9897  142.8966  165.8133 C.ar    1  UNL1       -0.0022
      3 C         139.9529  142.0450  166.4840 C.ar    1  UNL1        0.0043
      4 C         140.2840  140.6387  166.8874 C.ar    1  UNL1        0.0536
      5 C         141.6518  140.0840  166.6201 C.ar    1  UNL1        0.0043
      6 C         142.6885  140.9356  165.9493 C.ar    1  UNL1       -0.0022
      7 C         139.2472  139.7871  167.5581 C.2     1  UNL1        0.2491
      8 O         139.1429  139.7716  169.0544 O.2     1  UNL1       -0.2699
      9 N         138.3147  138.9510  166.7325 N.am    1  UNL1       -0.2745
     10 C         137.2779  138.0994  167.4032 C.3     1  UNL1        0.1151
     11 C         138.4191  138.9665  165.2362 C.3     1  UNL1        0.0930
     12 C         138.9813  137.8706  164.3802 C.3     1  UNL1        0.0386
     13 C         138.8892  138.3075  162.9482 C.3     1  UNL1        0.0738
     14 N         138.2700  139.6735  162.9192 N.3     1  UNL1       -0.2725
     15 C         137.9795  140.0808  164.3333 C.3     1  UNL1        0.0921
     16 C         137.9905  140.4889  161.6916 C.3     1  UNL1        0.0576
     17 C         137.7312  139.8068  160.3812 C.3     1  UNL1        0.0173
     18 C         137.9704  141.9865  161.7746 C.3     1  UNL1        0.0173
     19 C         143.3943  143.1935  164.8752 C.3     1  UNL1        0.1339
     20 C         145.9424  141.5848  163.6229 C.3     1  UNL1        0.0719
     21 C         144.8600  142.2677  162.8406 C.ar    1  UNL1        0.1210
     22 N         144.7587  142.3310  161.3454 N.ar    1  UNL1       -0.2309
     23 C         143.5249  143.1097  160.9969 C.ar    1  UNL1        0.0983
     24 C         142.9181  143.4921  159.6795 C.ar    1  UNL1        0.0206
     25 C         141.6501  144.2925  159.6420 C.ar    1  UNL1        0.0016
     26 C         140.9888  144.7103  160.9219 C.ar    1  UNL1        0.0016
     27 C         141.5955  144.3278  162.2393 C.ar    1  UNL1        0.0188
     28 C         142.8636  143.5275  162.2768 C.ar    1  UNL1        0.0789
     29 N         143.6887  143.0071  163.4162 N.ar    1  UNL1       -0.3106
@<TRIPOS>BOND
     1    20    21    1
     2    21    22   ar
     3    22    23   ar
     4    23    24   ar
     5    24    25   ar
     6    25    26   ar
     7    26    27   ar
     8    27    28   ar
     9    28    29   ar
    10    29    19    1
    11    19     1    1
    12     1     2   ar
    13     2     3   ar
    14     3     4   ar
    15     4     7    1
    16     7     8    2
    17     7     9   am
    18     9    10    1
    19    11     9    1
    20    11    12    1
    21    12    13    1
    22    13    14    1
    23    14    16    1
    24    16    17    1
    25    16    18    1
    26    14    15    1
    27     4     5   ar
    28     5     6   ar
    29    29    21   ar
    30     6     1   ar
    31    28    23   ar
    32    15    11    1
@<TRIPOS>MOLECULE
*****
 29 32 0 0 0
SMALL
GASTEIGER

@<TRIPOS>ATOM
      1 C         138.5354  138.5943  162.7995 C.ar    1  UNL1        0.0004
      2 C         138.9299  137.4768  163.7192 C.ar    1  UNL1       -0.0022
      3 C         138.9004  137.6821  165.2048 C.ar    1  UNL1        0.0043
      4 C         138.4764  139.0050  165.7707 C.ar    1  UNL1        0.0536
      5 C         138.0819  140.1224  164.8511 C.ar    1  UNL1        0.0043
      6 C         138.1114  139.9171  163.3656 C.ar    1  UNL1       -0.0022
      7 C         138.4469  139.2103  167.2563 C.2     1  UNL1        0.2491
      8 O         137.4303  138.4913  168.0928 O.2     1  UNL1       -0.2699
      9 N         139.4340  140.1346  167.9055 N.am    1  UNL1       -0.2745
     10 C         139.4045  140.3399  169.3911 C.3     1  UNL1        0.1151
     11 C         140.4506  140.8535  167.0690 C.3     1  UNL1        0.0930
     12 C         140.3801  142.2875  166.6347 C.3     1  UNL1        0.0386
     13 C         141.6021  142.5848  165.8173 C.3     1  UNL1        0.0738
     14 N         142.4280  141.3346  165.7465 N.3     1  UNL1       -0.2725
     15 C         141.7163  140.2646  166.5201 C.3     1  UNL1        0.0921
     16 C         143.7358  141.1814  165.0281 C.3     1  UNL1        0.0576
     17 C         144.2508  139.8134  164.6914 C.3     1  UNL1        0.0173
     18 C         144.5287  142.3962  164.6464 C.3     1  UNL1        0.0173
     19 C         138.5649  138.3889  161.3140 C.3     1  UNL1        0.1339
     20 C         138.1238  140.4298  158.8061 C.3     1  UNL1        0.0719
     21 C         139.4450  139.9592  159.3380 C.ar    1  UNL1        0.1210
     22 N         140.7954  140.3441  158.8106 N.ar    1  UNL1       -0.2309
     23 C         141.8328  139.6439  159.6374 C.ar    1  UNL1        0.0983
     24 C         143.3316  139.6453  159.5788 C.ar    1  UNL1        0.0206
     25 C         144.1212  138.8289  160.5587 C.ar    1  UNL1        0.0016
     26 C         143.4119  138.0113  161.5971 C.ar    1  UNL1        0.0016
     27 C         141.9130  138.0099  161.6557 C.ar    1  UNL1        0.0188
     28 C         141.1235  138.8263  160.6758 C.ar    1  UNL1        0.0789
     29 N         139.6478  139.0212  160.4908 N.ar    1  UNL1       -0.3106
@<TRIPOS>BOND
     1    20    21    1
     2    21    22   ar
     3    22    23   ar
     4    23    24   ar
     5    24    25   ar
     6    25    26   ar
     7    26    27   ar
     8    27    28   ar
     9    28    29   ar
    10    29    19    1
    11    19     1    1
    12     1     2   ar
    13     2     3   ar
    14     3     4   ar
    15     4     7    1
    16     7     8    2
    17     7     9   am
    18     9    10    1
    19    11     9    1
    20    11    12    1
    21    12    13    1
    22    13    14    1
    23    14    16    1
    24    16    17    1
    25    16    18    1
    26    14    15    1
    27     4     5   ar
    28     5     6   ar
    29    29    21   ar
    30     6     1   ar
    31    28    23   ar
    32    15    11    1
@<TRIPOS>MOLECULE
*****
 29 32 0 0 0
SMALL
GASTEIGER

@<TRIPOS>ATOM
      1 C         141.0274  137.9587  164.4203 C.ar    1  UNL1        0.0004
      2 C         140.0730  138.6470  165.3507 C.ar    1  UNL1       -0.0022
      3 C         140.5904  139.3508  166.5700 C.ar    1  UNL1        0.0043
      4 C         142.0622  139.3663  166.8591 C.ar    1  UNL1        0.0536
      5 C         143.0165  138.6781  165.9289 C.ar    1  UNL1        0.0043
      6 C         142.4992  137.9742  164.7095 C.ar    1  UNL1       -0.0022
      7 C         142.5796  140.0702  168.0785 C.2     1  UNL1        0.2491
      8 O         142.8865  139.2890  169.3218 O.2     1  UNL1       -0.2699
      9 N         142.7900  141.5552  168.0547 N.am    1  UNL1       -0.2745
     10 C         143.3074  142.2591  169.2741 C.3     1  UNL1        0.1151
     11 C         142.4831  142.3364  166.8114 C.3     1  UNL1        0.0930
     12 C         143.4559  142.6773  165.7218 C.3     1  UNL1        0.0386
     13 C         142.7235  143.4653  164.6765 C.3     1  UNL1        0.0738
     14 N         141.2981  143.6114  165.1202 N.3     1  UNL1       -0.2725
     15 C         141.1495  142.9136  166.4397 C.3     1  UNL1        0.0921
     16 C         140.2119  144.3292  164.3751 C.3     1  UNL1        0.0576
     17 C         138.9377  144.6962  165.0764 C.3     1  UNL1        0.0173
     18 C         140.4000  144.6799  162.9289 C.3     1  UNL1        0.0173
     19 C         140.5099  137.2549  163.2010 C.3     1  UNL1        0.1339
     20 C         137.7148  138.1015  161.7450 C.3     1  UNL1        0.0719
     21 C         139.0962  138.3869  161.2350 C.ar    1  UNL1        0.1210
     22 N         139.4355  139.1115  159.9662 N.ar    1  UNL1       -0.2309
     23 C         140.9299  139.1702  159.8513 C.ar    1  UNL1        0.0983
     24 C         141.8341  139.7615  158.8107 C.ar    1  UNL1        0.0206
     25 C         143.3226  139.6645  158.9679 C.ar    1  UNL1        0.0016
     26 C         143.9070  138.9761  160.1657 C.ar    1  UNL1        0.0016
     27 C         143.0029  138.3848  161.2063 C.ar    1  UNL1        0.0188
     28 C         141.5143  138.4818  161.0491 C.ar    1  UNL1        0.0789
     29 N         140.3810  137.9977  161.9042 N.ar    1  UNL1       -0.3106
@<TRIPOS>BOND
     1    20    21    1
     2    21    22   ar
     3    22    23   ar
     4    23    24   ar
     5    24    25   ar
     6    25    26   ar
     7    26    27   ar
     8    27    28   ar
     9    28    29   ar
    10    29    19    1
    11    19     1    1
    12     1     2   ar
    13     2     3   ar
    14     3     4   ar
    15     4     7    1
    16     7     8    2
    17     7     9   am
    18     9    10    1
    19    11     9    1
    20    11    12    1
    21    12    13    1
    22    13    14    1
    23    14    16    1
    24    16    17    1
    25    16    18    1
    26    14    15    1
    27     4     5   ar
    28     5     6   ar
    29    29    21   ar
    30     6     1   ar
    31    28    23   ar
    32    15    11    1
@<TRIPOS>MOLECULE
*****
 29 32 0 0 0
SMALL
GASTEIGER

@<TRIPOS>ATOM
      1 C         138.6487  139.3554  165.7580 C.ar    1  UNL1        0.0004
      2 C         139.1795  138.2869  164.8487 C.ar    1  UNL1       -0.0022
      3 C         139.1956  138.5047  163.3647 C.ar    1  UNL1        0.0043
      4 C         138.6808  139.7911  162.7899 C.ar    1  UNL1        0.0536
      5 C         138.1500  140.8595  163.6991 C.ar    1  UNL1        0.0043
      6 C         138.1339  140.6416  165.1831 C.ar    1  UNL1       -0.0022
      7 C         138.6970  140.0089  161.3059 C.2     1  UNL1        0.2491
      8 O         137.5385  139.5542  160.4685 O.2     1  UNL1       -0.2699
      9 N         139.8716  140.6815  160.6592 N.am    1  UNL1       -0.2745
     10 C         139.8877  140.8993  159.1752 C.3     1  UNL1        0.1151
     11 C         141.0300  141.1362  161.4966 C.3     1  UNL1        0.0930
     12 C         141.1981  142.4972  162.1043 C.3     1  UNL1        0.0386
     13 C         142.4957  142.5118  162.8566 C.3     1  UNL1        0.0738
     14 N         143.1296  141.1599  162.7139 N.3     1  UNL1       -0.2725
     15 C         142.2237  140.3096  161.8734 C.3     1  UNL1        0.0921
     16 C         144.4394  140.7331  163.3075 C.3     1  UNL1        0.0576
     17 C         145.5938  141.6901  163.3435 C.3     1  UNL1        0.0173
     18 C         144.5947  139.3492  163.8650 C.3     1  UNL1        0.0173
     19 C         138.6326  139.1375  167.2419 C.3     1  UNL1        0.1339
     20 C         137.9067  139.9134  170.3274 C.3     1  UNL1        0.0719
     21 C         139.1046  140.3857  169.5579 C.ar    1  UNL1        0.1210
     22 N         140.1791  141.2976  170.0716 N.ar    1  UNL1       -0.2309
     23 C         141.1768  141.5045  168.9708 C.ar    1  UNL1        0.0983
     24 C         142.4431  142.3056  168.9014 C.ar    1  UNL1        0.0206
     25 C         143.2515  142.3226  167.6380 C.ar    1  UNL1        0.0016
     26 C         142.7936  141.5385  166.4440 C.ar    1  UNL1        0.0016
     27 C         141.5273  140.7375  166.5134 C.ar    1  UNL1        0.0188
     28 C         140.7189  140.7205  167.7768 C.ar    1  UNL1        0.0789
     29 N         139.4382  140.0291  168.1397 N.ar    1  UNL1       -0.3106
@<TRIPOS>BOND
     1    20    21    1
     2    21    22   ar
     3    22    23   ar
     4    23    24   ar
     5    24    25   ar
     6    25    26   ar
     7    26    27   ar
     8    27    28   ar
     9    28    29   ar
    10    29    19    1
    11    19     1    1
    12     1     2   ar
    13     2     3   ar
    14     3     4   ar
    15     4     7    1
    16     7     8    2
    17     7     9   am
    18     9    10    1
    19    11     9    1
    20    11    12    1
    21    12    13    1
    22    13    14    1
    23    14    16    1
    24    16    17    1
    25    16    18    1
    26    14    15    1
    27     4     5   ar
    28     5     6   ar
    29    29    21   ar
    30     6     1   ar
    31    28    23   ar
    32    15    11    1
@<TRIPOS>MOLECULE
*****
 29 32 0 0 0
SMALL
GASTEIGER

@<TRIPOS>ATOM
      1 C         141.3671  137.9590  164.1446 C.ar    1  UNL1        0.0004
      2 C         140.3274  138.4437  165.1112 C.ar    1  UNL1       -0.0022
      3 C         140.7423  139.1555  166.3647 C.ar    1  UNL1        0.0043
      4 C         142.1970  139.3825  166.6516 C.ar    1  UNL1        0.0536
      5 C         143.2367  138.8978  165.6851 C.ar    1  UNL1        0.0043
      6 C         142.8217  138.1861  164.4316 C.ar    1  UNL1       -0.0022
      7 C         142.6120  140.0943  167.9051 C.2     1  UNL1        0.2491
      8 O         142.9885  139.3069  169.1250 O.2     1  UNL1       -0.2699
      9 N         142.6504  141.5935  167.9386 N.am    1  UNL1       -0.2745
     10 C         143.0653  142.3053  169.1921 C.3     1  UNL1        0.1151
     11 C         142.2738  142.3808  166.7187 C.3     1  UNL1        0.0930
     12 C         143.1757  142.7032  165.5643 C.3     1  UNL1        0.0386
     13 C         142.3885  143.5057  164.5711 C.3     1  UNL1        0.0738
     14 N         141.0001  143.6792  165.1117 N.3     1  UNL1       -0.2725
     15 C         140.9292  142.9841  166.4390 C.3     1  UNL1        0.0921
     16 C         139.8794  144.4183  164.4425 C.3     1  UNL1        0.0576
     17 C         138.5452  144.5298  165.1189 C.3     1  UNL1        0.0173
     18 C         140.0928  145.0458  163.0968 C.3     1  UNL1        0.0173
     19 C         140.9521  137.2472  162.8912 C.3     1  UNL1        0.1339
     20 C         143.4773  137.5388  160.8448 C.3     1  UNL1        0.0719
     21 C         142.1061  138.1116  160.6404 C.ar    1  UNL1        0.1210
     22 N         141.6549  138.9191  159.4596 N.ar    1  UNL1       -0.2309
     23 C         140.2153  139.2841  159.6704 C.ar    1  UNL1        0.0983
     24 C         139.2471  140.0711  158.8379 C.ar    1  UNL1        0.0206
     25 C         137.8405  140.2763  159.3165 C.ar    1  UNL1        0.0016
     26 C         137.4020  139.6945  160.6277 C.ar    1  UNL1        0.0016
     27 C         138.3702  138.9074  161.4602 C.ar    1  UNL1        0.0188
     28 C         139.7768  138.7023  160.9816 C.ar    1  UNL1        0.0789
     29 N         140.9454  137.9776  161.5811 N.ar    1  UNL1       -0.3106
@<TRIPOS>BOND
     1    20    21    1
     2    21    22   ar
     3    22    23   ar
     4    23    24   ar
     5    24    25   ar
     6    25    26   ar
     7    26    27   ar
     8    27    28   ar
     9    28    29   ar
    10    29    19    1
    11    19     1    1
    12     1     2   ar
    13     2     3   ar
    14     3     4   ar
    15     4     7    1
    16     7     8    2
    17     7     9   am
    18     9    10    1
    19    11     9    1
    20    11    12    1
    21    12    13    1
    22    13    14    1
    23    14    16    1
    24    16    17    1
    25    16    18    1
    26    14    15    1
    27     4     5   ar
    28     5     6   ar
    29    29    21   ar
    30     6     1   ar
    31    28    23   ar
    32    15    11    1
@<TRIPOS>MOLECULE
*****
 29 32 0 0 0
SMALL
GASTEIGER

@<TRIPOS>ATOM
      1 C         138.7118  142.8644  164.6670 C.ar    1  UNL1        0.0004
      2 C         139.6865  143.5970  165.5408 C.ar    1  UNL1       -0.0022
      3 C         140.3711  142.8797  166.6663 C.ar    1  UNL1        0.0043
      4 C         140.0810  141.4297  166.9181 C.ar    1  UNL1        0.0536
      5 C         139.1063  140.6971  166.0444 C.ar    1  UNL1        0.0043
      6 C         138.4218  141.4144  164.9189 C.ar    1  UNL1       -0.0022
      7 C         140.7655  140.7124  168.0436 C.2     1  UNL1        0.2491
      8 O         140.2491  140.8502  169.4451 O.2     1  UNL1       -0.2699
      9 N         141.9666  139.8571  167.7676 N.am    1  UNL1       -0.2745
     10 C         142.6512  139.1398  168.8931 C.3     1  UNL1        0.1151
     11 C         142.4830  139.7192  166.3660 C.3     1  UNL1        0.0930
     12 C         142.1329  138.6256  165.4010 C.3     1  UNL1        0.0386
     13 C         142.8737  138.8813  164.1220 C.3     1  UNL1        0.0738
     14 N         143.6818  140.1329  164.2966 N.3     1  UNL1       -0.2725
     15 C         143.4403  140.6508  165.6835 C.3     1  UNL1        0.0921
     16 C         144.5745  140.7571  163.2654 C.3     1  UNL1        0.0576
     17 C         145.7438  141.5936  163.6931 C.3     1  UNL1        0.0173
     18 C         144.2979  140.5448  161.8065 C.3     1  UNL1        0.0173
     19 C         138.0273  143.5818  163.5416 C.3     1  UNL1        0.1339
     20 C         139.7545  145.8993  162.0265 C.3     1  UNL1        0.0719
     21 C         139.3777  144.5647  161.4546 C.ar    1  UNL1        0.1210
     22 N         139.7285  144.0611  160.0860 N.ar    1  UNL1       -0.2309
     23 C         139.1515  142.6846  159.9365 C.ar    1  UNL1        0.0983
     24 C         139.1789  141.7025  158.8031 C.ar    1  UNL1        0.0206
     25 C         138.4988  140.3732  158.9461 C.ar    1  UNL1        0.0016
     26 C         137.7912  140.0261  160.2224 C.ar    1  UNL1        0.0016
     27 C         137.7638  141.0083  161.3557 C.ar    1  UNL1        0.0188
     28 C         138.4440  142.3375  161.2128 C.ar    1  UNL1        0.0789
     29 N         138.5837  143.4995  162.1510 N.ar    1  UNL1       -0.3106
@<TRIPOS>BOND
     1    20    21    1
     2    21    22   ar
     3    22    23   ar
     4    23    24   ar
     5    24    25   ar
     6    25    26   ar
     7    26    27   ar
     8    27    28   ar
     9    28    29   ar
    10    29    19    1
    11    19     1    1
    12     1     2   ar
    13     2     3   ar
    14     3     4   ar
    15     4     7    1
    16     7     8    2
    17     7     9   am
    18     9    10    1
    19    11     9    1
    20    11    12    1
    21    12    13    1
    22    13    14    1
    23    14    16    1
    24    16    17    1
    25    16    18    1
    26    14    15    1
    27     4     5   ar
    28     5     6   ar
    29    29    21   ar
    30     6     1   ar
    31    28    23   ar
    32    15    11    1
@<TRIPOS>MOLECULE
*****
 29 32 0 0 0
SMALL
GASTEIGER

@<TRIPOS>ATOM
      1 C         139.1205  138.3557  162.6210 C.ar    1  UNL1        0.0004
      2 C         138.4497  139.6153  163.0832 C.ar    1  UNL1       -0.0022
      3 C         138.2386  139.8586  164.5482 C.ar    1  UNL1        0.0043
      4 C         138.6983  138.8423  165.5511 C.ar    1  UNL1        0.0536
      5 C         139.3691  137.5827  165.0890 C.ar    1  UNL1        0.0043
      6 C         139.5802  137.3395  163.6240 C.ar    1  UNL1       -0.0022
      7 C         138.4872  139.0855  167.0161 C.2     1  UNL1        0.2491
      8 O         137.2743  138.5296  167.7016 O.2     1  UNL1       -0.2699
      9 N         139.4890  139.8848  167.7957 N.am    1  UNL1       -0.2745
     10 C         139.2779  140.1281  169.2607 C.3     1  UNL1        0.1151
     11 C         140.7019  140.4408  167.1103 C.3     1  UNL1        0.0930
     12 C         142.0467  139.7817  167.0259 C.3     1  UNL1        0.0386
     13 C         142.9588  140.6870  166.2523 C.3     1  UNL1        0.0738
     14 N         142.1777  141.9056  165.8585 N.3     1  UNL1       -0.2725
     15 C         140.7829  141.7534  166.3888 C.3     1  UNL1        0.0921
     16 C         142.6999  143.0716  165.0726 C.3     1  UNL1        0.0576
     17 C         144.1672  143.3829  165.0779 C.3     1  UNL1        0.0173
     18 C         141.7547  143.9262  164.2812 C.3     1  UNL1        0.0173
     19 C         139.3316  138.1125  161.1561 C.3     1  UNL1        0.1339
     20 C         139.6997  138.4172  157.9279 C.3     1  UNL1        0.0719
     21 C         140.6794  138.8622  158.9729 C.ar    1  UNL1        0.1210
     22 N         142.0004  139.5254  158.7176 N.ar    1  UNL1       -0.2309
     23 C         142.6477  139.7952  160.0436 C.ar    1  UNL1        0.0983
     24 C         143.9566  140.4288  160.4111 C.ar    1  UNL1        0.0206
     25 C         144.3446  140.5660  161.8535 C.ar    1  UNL1        0.0016
     26 C         143.4236  140.0695  162.9284 C.ar    1  UNL1        0.0016
     27 C         142.1147  139.4360  162.5609 C.ar    1  UNL1        0.0188
     28 C         141.7267  139.2988  161.1185 C.ar    1  UNL1        0.0789
     29 N         140.5103  138.7222  160.4567 N.ar    1  UNL1       -0.3106
@<TRIPOS>BOND
     1    20    21    1
     2    21    22   ar
     3    22    23   ar
     4    23    24   ar
     5    24    25   ar
     6    25    26   ar
     7    26    27   ar
     8    27    28   ar
     9    28    29   ar
    10    29    19    1
    11    19     1    1
    12     1     2   ar
    13     2     3   ar
    14     3     4   ar
    15     4     7    1
    16     7     8    2
    17     7     9   am
    18     9    10    1
    19    11     9    1
    20    11    12    1
    21    12    13    1
    22    13    14    1
    23    14    16    1
    24    16    17    1
    25    16    18    1
    26    14    15    1
    27     4     5   ar
    28     5     6   ar
    29    29    21   ar
    30     6     1   ar
    31    28    23   ar
    32    15    11    1
