@<TRIPOS>MOLECULE
*****
 32 35 0 0 0
SMALL
GASTEIGER

@<TRIPOS>ATOM
      1 C         141.7028  141.6280  169.1231 C.2     1  UNL1        0.1571
      2 N         141.4351  141.6544  170.5988 N.2     1  UNL1       -0.1436
      3 N         140.1599  140.9063  170.8520 N.2     1  UNL1       -0.1519
      4 C         139.6394  140.4176  169.5329 C.2     1  UNL1        0.0865
      5 C         138.4204  139.6240  169.1666 C.3     1  UNL1        0.0736
      6 C         138.1549  139.2765  167.7318 C.2     1  UNL1       -0.0196
      7 C         139.1085  139.7225  166.6633 C.2     1  UNL1       -0.0016
      8 C         140.3275  140.5161  167.0295 C.2     1  UNL1        0.0027
      9 C         140.5930  140.8636  168.4643 C.2     1  UNL1        0.0395
     10 C         138.8430  139.3750  165.2284 C.ar    1  UNL1        0.0294
     11 C         139.2270  138.0245  164.7004 C.ar    1  UNL1        0.0024
     12 C         138.9615  137.6770  163.2655 C.ar    1  UNL1        0.0025
     13 C         138.3120  138.6799  162.3587 C.ar    1  UNL1        0.0320
     14 C         137.9280  140.0304  162.8868 C.ar    1  UNL1        0.1674
     15 F         137.2785  141.0333  161.9800 F       1  UNL1       -0.2018
     16 C         138.1935  140.3779  164.3216 C.ar    1  UNL1        0.1673
     17 F         137.8095  141.7284  164.8497 F       1  UNL1       -0.2018
     18 N         142.8756  142.3923  166.9344 N.am    1  UNL1       -0.2996
     19 C         142.8745  142.2558  168.4282 C.2     1  UNL1        0.2654
     20 O         144.0451  142.7471  169.2270 O.2     1  UNL1       -0.2684
     21 H         142.1072  142.0699  166.4100 H       1  UNL1        0.1498
     22 C         144.0473  143.0201  166.2394 C.3     1  UNL1        0.0898
     23 N         144.4941  142.6245  161.7791 N.3     1  UNL1       -0.2706
     24 C         143.6556  143.7274  162.3540 C.3     1  UNL1        0.0722
     25 C         143.5067  143.8593  163.8409 C.3     1  UNL1        0.0191
     26 C         144.1962  142.8882  164.7527 C.3     1  UNL1        0.0224
     27 C         145.0347  141.7852  164.1778 C.3     1  UNL1        0.0191
     28 C         145.1836  141.6534  162.6911 C.3     1  UNL1        0.0722
     29 C         144.6430  142.4925  160.2924 C.3     1  UNL1        0.1046
     30 C         143.5787  141.8043  159.4903 C.3     1  UNL1        0.1595
     31 C         143.8260  139.3107  160.1769 C.3     1  UNL1        0.1742
     32 O         143.7404  140.3622  159.1105 O.3     1  UNL1       -0.3496
@<TRIPOS>BOND
     1    31    32    1
     2    32    30    1
     3    30    29    1
     4    29    23    1
     5    23    24    1
     6    24    25    1
     7    25    26    1
     8    26    22    1
     9    22    18    1
    10    18    19   am
    11    19    20    2
    12    19     1    1
    13     1     2    2
    14     2     3    1
    15     3     4    2
    16     4     5    1
    17     5     6    1
    18     6     7    2
    19     7    10    1
    20    10    11   ar
    21    11    12   ar
    22    12    13   ar
    23    13    14   ar
    24    14    15    1
    25    14    16   ar
    26    16    17    1
    27     7     8    1
    28     8     9    2
    29    26    27    1
    30    27    28    1
    31    28    23    1
    32     9     1    1
    33     9     4    1
    34    16    10   ar
    35    18    21    1
@<TRIPOS>MOLECULE
*****
 32 35 0 0 0
SMALL
GASTEIGER

@<TRIPOS>ATOM
      1 C         139.3888  139.8424  167.6504 C.2     1  UNL1        0.1571
      2 N         138.9724  139.9853  169.0844 N.2     1  UNL1       -0.1436
      3 N         139.9936  140.8350  169.7810 N.2     1  UNL1       -0.1519
      4 C         141.0411  141.2172  168.7776 C.2     1  UNL1        0.0865
      5 C         142.2869  142.0445  168.8928 C.3     1  UNL1        0.0736
      6 C         143.1589  142.2584  167.6913 C.2     1  UNL1       -0.0196
      7 C         142.7851  141.6450  166.3745 C.2     1  UNL1       -0.0016
      8 C         141.5392  140.8176  166.2592 C.2     1  UNL1        0.0027
      9 C         140.6672  140.6037  167.4608 C.2     1  UNL1        0.0395
     10 C         143.6572  141.8589  165.1729 C.ar    1  UNL1        0.0294
     11 C         144.5966  140.7783  164.7260 C.ar    1  UNL1        0.0024
     12 C         145.4687  140.9922  163.5244 C.ar    1  UNL1        0.0025
     13 C         145.4013  142.2868  162.7698 C.ar    1  UNL1        0.0320
     14 C         144.4619  143.3675  163.2167 C.ar    1  UNL1        0.1674
     15 F         144.3945  144.6621  162.4620 F       1  UNL1       -0.2018
     16 C         143.5898  143.1535  164.4182 C.ar    1  UNL1        0.1673
     17 F         142.6504  144.2342  164.8652 F       1  UNL1       -0.2018
     18 N         139.2428  138.9415  165.2179 N.am    1  UNL1       -0.2996
     19 C         138.6554  139.0732  166.5919 C.2     1  UNL1        0.2654
     20 O         137.3348  138.4358  166.9071 O.2     1  UNL1       -0.2684
     21 H         140.1096  139.3598  165.0109 H       1  UNL1        0.1498
     22 C         138.5094  138.1723  164.1593 C.3     1  UNL1        0.0898
     23 N         138.6894  139.5178  159.8689 N.3     1  UNL1       -0.2706
     24 C         137.8227  140.2512  160.8492 C.3     1  UNL1        0.0722
     25 C         137.7627  139.8027  162.2794 C.3     1  UNL1        0.0191
     26 C         138.5694  138.6207  162.7292 C.3     1  UNL1        0.0224
     27 C         139.4361  137.8873  161.7489 C.3     1  UNL1        0.0191
     28 C         139.4960  138.3359  160.3188 C.3     1  UNL1        0.0722
     29 C         138.7494  139.9663  158.4388 C.3     1  UNL1        0.1046
     30 C         137.7491  140.9568  157.9209 C.3     1  UNL1        0.1595
     31 C         136.4590  140.7221  155.6779 C.3     1  UNL1        0.1742
     32 O         136.5498  140.4813  157.1557 O.3     1  UNL1       -0.3496
@<TRIPOS>BOND
     1    31    32    1
     2    32    30    1
     3    30    29    1
     4    29    23    1
     5    23    24    1
     6    24    25    1
     7    25    26    1
     8    26    22    1
     9    22    18    1
    10    18    19   am
    11    19    20    2
    12    19     1    1
    13     1     2    2
    14     2     3    1
    15     3     4    2
    16     4     5    1
    17     5     6    1
    18     6     7    2
    19     7    10    1
    20    10    11   ar
    21    11    12   ar
    22    12    13   ar
    23    13    14   ar
    24    14    15    1
    25    14    16   ar
    26    16    17    1
    27     7     8    1
    28     8     9    2
    29    26    27    1
    30    27    28    1
    31    28    23    1
    32     9     1    1
    33     9     4    1
    34    16    10   ar
    35    18    21    1
@<TRIPOS>MOLECULE
*****
 32 35 0 0 0
SMALL
GASTEIGER

@<TRIPOS>ATOM
      1 C         138.6010  139.5372  168.1095 C.2     1  UNL1        0.1571
      2 N         138.0562  139.4972  169.5065 N.2     1  UNL1       -0.1436
      3 N         138.7291  140.5795  170.2976 N.2     1  UNL1       -0.1519
      4 C         139.6897  141.2885  169.3895 C.2     1  UNL1        0.0865
      5 C         140.6262  142.4374  169.6192 C.3     1  UNL1        0.0736
      6 C         141.4836  142.9421  168.4967 C.2     1  UNL1       -0.0196
      7 C         141.4045  142.2978  167.1444 C.2     1  UNL1       -0.0016
      8 C         140.4679  141.1489  166.9147 C.2     1  UNL1        0.0027
      9 C         139.6105  140.6442  168.0372 C.2     1  UNL1        0.0395
     10 C         142.2620  142.8026  166.0219 C.ar    1  UNL1        0.0294
     11 C         143.7463  142.5899  166.0579 C.ar    1  UNL1        0.0024
     12 C         144.6038  143.0947  164.9353 C.ar    1  UNL1        0.0025
     13 C         143.9768  143.8121  163.7768 C.ar    1  UNL1        0.0320
     14 C         142.4923  144.0247  163.7408 C.ar    1  UNL1        0.1674
     15 F         141.8653  144.7420  162.5822 F       1  UNL1       -0.2018
     16 C         141.6350  143.5199  164.8633 C.ar    1  UNL1        0.1673
     17 F         140.1505  143.7326  164.8273 F       1  UNL1       -0.2018
     18 N         139.0365  138.5774  165.7348 N.am    1  UNL1       -0.2996
     19 C         138.2057  138.6295  166.9827 C.2     1  UNL1        0.2654
     20 O         136.9797  137.7738  167.1036 O.2     1  UNL1       -0.2684
     21 H         139.8412  139.1390  165.6553 H       1  UNL1        0.1498
     22 C         138.6411  137.6697  164.6079 C.3     1  UNL1        0.0898
     23 N         140.1555  138.4606  160.4448 N.3     1  UNL1       -0.2706
     24 C         141.0972  137.9722  161.5053 C.3     1  UNL1        0.0722
     25 C         140.5924  137.7086  162.8930 C.3     1  UNL1        0.0191
     26 C         139.1459  137.9333  163.2202 C.3     1  UNL1        0.0224
     27 C         138.2041  138.4217  162.1598 C.3     1  UNL1        0.0191
     28 C         138.7089  138.6854  160.7721 C.3     1  UNL1        0.0722
     29 C         140.6602  138.7243  159.0571 C.3     1  UNL1        0.1046
     30 C         139.7857  138.4343  157.8734 C.3     1  UNL1        0.1595
     31 C         141.5188  136.9541  156.6260 C.3     1  UNL1        0.1742
     32 O         140.0956  137.2706  156.9791 O.3     1  UNL1       -0.3496
@<TRIPOS>BOND
     1    31    32    1
     2    32    30    1
     3    30    29    1
     4    29    23    1
     5    23    24    1
     6    24    25    1
     7    25    26    1
     8    26    22    1
     9    22    18    1
    10    18    19   am
    11    19    20    2
    12    19     1    1
    13     1     2    2
    14     2     3    1
    15     3     4    2
    16     4     5    1
    17     5     6    1
    18     6     7    2
    19     7    10    1
    20    10    11   ar
    21    11    12   ar
    22    12    13   ar
    23    13    14   ar
    24    14    15    1
    25    14    16   ar
    26    16    17    1
    27     7     8    1
    28     8     9    2
    29    26    27    1
    30    27    28    1
    31    28    23    1
    32     9     1    1
    33     9     4    1
    34    16    10   ar
    35    18    21    1
@<TRIPOS>MOLECULE
*****
 32 35 0 0 0
SMALL
GASTEIGER

@<TRIPOS>ATOM
      1 C         139.5758  139.7696  167.6023 C.2     1  UNL1        0.1571
      2 N         139.3515  139.6384  169.0796 N.2     1  UNL1       -0.1436
      3 N         140.3310  140.5341  169.7784 N.2     1  UNL1       -0.1519
      4 C         141.1606  141.2189  168.7330 C.2     1  UNL1        0.0865
      5 C         142.2806  142.2117  168.8320 C.3     1  UNL1        0.0736
      6 C         142.9339  142.7319  167.5860 C.2     1  UNL1       -0.0196
      7 C         142.4671  142.2594  166.2411 C.2     1  UNL1       -0.0016
      8 C         141.3471  141.2667  166.1421 C.2     1  UNL1        0.0027
      9 C         140.6938  140.7464  167.3881 C.2     1  UNL1        0.0395
     10 C         143.1205  142.7797  164.9950 C.ar    1  UNL1        0.0294
     11 C         142.7013  144.1022  164.4246 C.ar    1  UNL1        0.0024
     12 C         143.3547  144.6225  163.1786 C.ar    1  UNL1        0.0025
     13 C         144.4272  143.8203  162.5031 C.ar    1  UNL1        0.0320
     14 C         144.8463  142.4978  163.0736 C.ar    1  UNL1        0.1674
     15 F         145.9188  141.6956  162.3981 F       1  UNL1       -0.2018
     16 C         144.1930  141.9776  164.3195 C.ar    1  UNL1        0.1673
     17 F         144.6121  140.6551  164.8901 F       1  UNL1       -0.2018
     18 N         139.5218  138.5964  165.2847 N.am    1  UNL1       -0.2996
     19 C         138.8154  139.0503  166.5278 C.2     1  UNL1        0.2654
     20 O         137.3488  138.7849  166.6962 O.2     1  UNL1       -0.2684
     21 H         140.4845  138.7706  165.1741 H       1  UNL1        0.1498
     22 C         138.7615  137.8771  164.2103 C.3     1  UNL1        0.0898
     23 N         139.1546  139.1783  159.9204 N.3     1  UNL1       -0.2706
     24 C         140.2555  138.3934  160.5700 C.3     1  UNL1        0.0722
     25 C         140.1245  137.9597  162.0000 C.3     1  UNL1        0.0191
     26 C         138.8925  138.3109  162.7803 C.3     1  UNL1        0.0224
     27 C         137.7916  139.0957  162.1307 C.3     1  UNL1        0.0191
     28 C         137.9227  139.5294  160.7008 C.3     1  UNL1        0.0722
     29 C         139.2856  139.6120  158.4905 C.3     1  UNL1        0.1046
     30 C         139.6216  141.0376  158.1670 C.3     1  UNL1        0.1595
     31 C         139.2732  142.9729  159.8651 C.3     1  UNL1        0.1742
     32 O         140.1619  141.9417  159.2351 O.3     1  UNL1       -0.3496
@<TRIPOS>BOND
     1    31    32    1
     2    32    30    1
     3    30    29    1
     4    29    23    1
     5    23    24    1
     6    24    25    1
     7    25    26    1
     8    26    22    1
     9    22    18    1
    10    18    19   am
    11    19    20    2
    12    19     1    1
    13     1     2    2
    14     2     3    1
    15     3     4    2
    16     4     5    1
    17     5     6    1
    18     6     7    2
    19     7    10    1
    20    10    11   ar
    21    11    12   ar
    22    12    13   ar
    23    13    14   ar
    24    14    15    1
    25    14    16   ar
    26    16    17    1
    27     7     8    1
    28     8     9    2
    29    26    27    1
    30    27    28    1
    31    28    23    1
    32     9     1    1
    33     9     4    1
    34    16    10   ar
    35    18    21    1
@<TRIPOS>MOLECULE
*****
 32 35 0 0 0
SMALL
GASTEIGER

@<TRIPOS>ATOM
      1 C         142.4491  139.6385  167.6243 C.2     1  UNL1        0.1571
      2 N         142.7897  139.4939  169.0779 N.2     1  UNL1       -0.1436
      3 N         142.2098  140.6684  169.8089 N.2     1  UNL1       -0.1519
      4 C         141.5108  141.5389  168.8070 C.2     1  UNL1        0.0865
      5 C         140.7589  142.8289  168.9497 C.3     1  UNL1        0.0736
      6 C         140.1547  143.4823  167.7423 C.2     1  UNL1       -0.0196
      7 C         140.3025  142.8458  166.3921 C.2     1  UNL1       -0.0016
      8 C         141.0545  141.5558  166.2494 C.2     1  UNL1        0.0027
      9 C         141.6587  140.9024  167.4568 C.2     1  UNL1        0.0395
     10 C         139.6983  143.4993  165.1846 C.ar    1  UNL1        0.0294
     11 C         138.2500  143.2825  164.8603 C.ar    1  UNL1        0.0024
     12 C         137.6458  143.9360  163.6528 C.ar    1  UNL1        0.0025
     13 C         138.4900  144.8063  162.7697 C.ar    1  UNL1        0.0320
     14 C         139.9384  145.0230  163.0941 C.ar    1  UNL1        0.1674
     15 F         140.7827  145.8933  162.2110 F       1  UNL1       -0.2018
     16 C         140.5426  144.3696  164.3015 C.ar    1  UNL1        0.1673
     17 F         141.9910  144.5863  164.6259 F       1  UNL1       -0.2018
     18 N         141.8906  138.4386  165.3885 N.am    1  UNL1       -0.2996
     19 C         142.8316  138.6864  166.5301 C.2     1  UNL1        0.2654
     20 O         144.1551  137.9821  166.5775 O.2     1  UNL1       -0.2684
     21 H         141.0219  138.9008  165.3574 H       1  UNL1        0.1498
     22 C         142.2731  137.4865  164.2944 C.3     1  UNL1        0.0898
     23 N         142.6046  138.9505  160.0521 N.3     1  UNL1       -0.2706
     24 C         141.2764  138.5092  160.5916 C.3     1  UNL1        0.0722
     25 C         141.1659  138.0212  162.0057 C.3     1  UNL1        0.0191
     26 C         142.3837  137.9745  162.8803 C.3     1  UNL1        0.0224
     27 C         143.7119  138.4158  162.3408 C.3     1  UNL1        0.0191
     28 C         143.8223  138.9037  160.9267 C.3     1  UNL1        0.0722
     29 C         142.7151  139.4384  158.6380 C.3     1  UNL1        0.1046
     30 C         143.7238  140.4910  158.2846 C.3     1  UNL1        0.1595
     31 C         145.2613  140.9663  156.2449 C.3     1  UNL1        0.1742
     32 O         144.9153  140.1362  157.4454 O.3     1  UNL1       -0.3496
@<TRIPOS>BOND
     1    31    32    1
     2    32    30    1
     3    30    29    1
     4    29    23    1
     5    23    24    1
     6    24    25    1
     7    25    26    1
     8    26    22    1
     9    22    18    1
    10    18    19   am
    11    19    20    2
    12    19     1    1
    13     1     2    2
    14     2     3    1
    15     3     4    2
    16     4     5    1
    17     5     6    1
    18     6     7    2
    19     7    10    1
    20    10    11   ar
    21    11    12   ar
    22    12    13   ar
    23    13    14   ar
    24    14    15    1
    25    14    16   ar
    26    16    17    1
    27     7     8    1
    28     8     9    2
    29    26    27    1
    30    27    28    1
    31    28    23    1
    32     9     1    1
    33     9     4    1
    34    16    10   ar
    35    18    21    1
@<TRIPOS>MOLECULE
*****
 32 35 0 0 0
SMALL
GASTEIGER

@<TRIPOS>ATOM
      1 C         140.8242  138.8971  163.6215 C.2     1  UNL1        0.1571
      2 N         139.8342  138.1005  162.8245 N.2     1  UNL1       -0.1436
      3 N         138.6372  137.8471  163.6923 N.2     1  UNL1       -0.1519
      4 C         138.8874  138.4872  165.0256 C.2     1  UNL1        0.0865
      5 C         138.0591  138.5629  166.2738 C.3     1  UNL1        0.0736
      6 C         138.5825  139.2876  167.4783 C.2     1  UNL1       -0.0196
      7 C         139.9341  139.9366  167.4346 C.2     1  UNL1       -0.0016
      8 C         140.7624  139.8608  166.1864 C.2     1  UNL1        0.0027
      9 C         140.2391  139.1361  164.9819 C.2     1  UNL1        0.0395
     10 C         140.4574  140.6613  168.6392 C.ar    1  UNL1        0.0294
     11 C         140.9697  139.8863  169.8168 C.ar    1  UNL1        0.0024
     12 C         141.4930  140.6110  171.0214 C.ar    1  UNL1        0.0025
     13 C         141.5040  142.1107  171.0483 C.ar    1  UNL1        0.0320
     14 C         140.9917  142.8857  169.8705 C.ar    1  UNL1        0.1674
     15 F         141.0028  144.3855  169.8974 F       1  UNL1       -0.2018
     16 C         140.4684  142.1610  168.6660 C.ar    1  UNL1        0.1673
     17 F         139.9561  142.9360  167.4883 F       1  UNL1       -0.2018
     18 N         142.3293  140.7788  162.6497 N.am    1  UNL1       -0.2996
     19 C         142.1641  139.3716  163.1423 C.2     1  UNL1        0.2654
     20 O         143.3387  138.4389  163.1558 O.2     1  UNL1       -0.2684
     21 H         141.5583  141.3909  162.6409 H       1  UNL1        0.1498
     22 C         143.6692  141.2532  162.1705 C.3     1  UNL1        0.0898
     23 N         144.5508  141.4226  157.7609 N.3     1  UNL1       -0.2706
     24 C         143.8885  140.2112  158.3474 C.3     1  UNL1        0.0722
     25 C         143.5946  140.1548  159.8173 C.3     1  UNL1        0.0191
     26 C         143.9631  141.3097  160.7007 C.3     1  UNL1        0.0224
     27 C         144.6254  142.5211  160.1143 C.3     1  UNL1        0.0191
     28 C         144.9192  142.5775  158.6444 C.3     1  UNL1        0.0722
     29 C         144.8446  141.4791  156.2911 C.3     1  UNL1        0.1046
     30 C         146.2257  141.1759  155.7903 C.3     1  UNL1        0.1595
     31 C         148.7322  141.8361  155.6117 C.3     1  UNL1        0.1742
     32 O         147.3089  142.2068  155.9068 O.3     1  UNL1       -0.3496
@<TRIPOS>BOND
     1    31    32    1
     2    32    30    1
     3    30    29    1
     4    29    23    1
     5    23    24    1
     6    24    25    1
     7    25    26    1
     8    26    22    1
     9    22    18    1
    10    18    19   am
    11    19    20    2
    12    19     1    1
    13     1     2    2
    14     2     3    1
    15     3     4    2
    16     4     5    1
    17     5     6    1
    18     6     7    2
    19     7    10    1
    20    10    11   ar
    21    11    12   ar
    22    12    13   ar
    23    13    14   ar
    24    14    15    1
    25    14    16   ar
    26    16    17    1
    27     7     8    1
    28     8     9    2
    29    26    27    1
    30    27    28    1
    31    28    23    1
    32     9     1    1
    33     9     4    1
    34    16    10   ar
    35    18    21    1
@<TRIPOS>MOLECULE
*****
 32 35 0 0 0
SMALL
GASTEIGER

@<TRIPOS>ATOM
      1 C         138.3795  141.9808  162.1373 C.2     1  UNL1        0.1571
      2 N         137.8845  143.2499  161.5092 N.2     1  UNL1       -0.1436
      3 N         138.1344  144.3720  162.4726 N.2     1  UNL1       -0.1519
      4 C         138.7838  143.7966  163.6962 C.2     1  UNL1        0.0865
      5 C         139.2568  144.4274  164.9722 C.3     1  UNL1        0.0736
      6 C         139.8813  143.5802  166.0411 C.2     1  UNL1       -0.0196
      7 C         140.0327  142.1024  165.8338 C.2     1  UNL1       -0.0016
      8 C         139.5597  141.4716  164.5578 C.2     1  UNL1        0.0027
      9 C         138.9353  142.3187  163.4890 C.2     1  UNL1        0.0395
     10 C         140.6572  141.2553  166.9027 C.ar    1  UNL1        0.0294
     11 C         140.1340  141.3137  168.3073 C.ar    1  UNL1        0.0024
     12 C         140.7584  140.4666  169.3762 C.ar    1  UNL1        0.0025
     13 C         141.9062  139.5610  169.0405 C.ar    1  UNL1        0.0320
     14 C         142.4294  139.5026  167.6359 C.ar    1  UNL1        0.1674
     15 F         143.5771  138.5970  167.3001 F       1  UNL1       -0.2018
     16 C         141.8049  140.3497  166.5670 C.ar    1  UNL1        0.1673
     17 F         142.3281  140.2912  165.1624 F       1  UNL1       -0.2018
     18 N         138.9363  140.3757  160.1716 N.am    1  UNL1       -0.2996
     19 C         138.3277  140.6139  161.5219 C.2     1  UNL1        0.2654
     20 O         137.6675  139.4851  162.2565 O.2     1  UNL1       -0.2684
     21 H         139.3696  141.1166  159.6894 H       1  UNL1        0.1498
     22 C         138.8845  139.0088  159.5562 C.3     1  UNL1        0.0898
     23 N         142.3384  137.5224  157.0840 N.3     1  UNL1       -0.2706
     24 C         142.5823  138.0785  158.4556 C.3     1  UNL1        0.0722
     25 C         141.4309  138.5740  159.2797 C.3     1  UNL1        0.0191
     26 C         140.0358  138.5133  158.7321 C.3     1  UNL1        0.0224
     27 C         139.7919  137.9572  157.3605 C.3     1  UNL1        0.0191
     28 C         140.9432  137.4617  156.5365 C.3     1  UNL1        0.0722
     29 C         143.4897  137.0269  156.2600 C.3     1  UNL1        0.1046
     30 C         143.6800  135.5545  156.0462 C.3     1  UNL1        0.1595
     31 C         144.0593  133.6057  157.7221 C.3     1  UNL1        0.1742
     32 O         143.1371  134.5753  157.0444 O.3     1  UNL1       -0.3496
@<TRIPOS>BOND
     1    31    32    1
     2    32    30    1
     3    30    29    1
     4    29    23    1
     5    23    24    1
     6    24    25    1
     7    25    26    1
     8    26    22    1
     9    22    18    1
    10    18    19   am
    11    19    20    2
    12    19     1    1
    13     1     2    2
    14     2     3    1
    15     3     4    2
    16     4     5    1
    17     5     6    1
    18     6     7    2
    19     7    10    1
    20    10    11   ar
    21    11    12   ar
    22    12    13   ar
    23    13    14   ar
    24    14    15    1
    25    14    16   ar
    26    16    17    1
    27     7     8    1
    28     8     9    2
    29    26    27    1
    30    27    28    1
    31    28    23    1
    32     9     1    1
    33     9     4    1
    34    16    10   ar
    35    18    21    1
@<TRIPOS>MOLECULE
*****
 32 35 0 0 0
SMALL
GASTEIGER

@<TRIPOS>ATOM
      1 C         143.2773  141.1123  163.1317 C.2     1  UNL1        0.1571
      2 N         144.0594  140.0407  162.4316 N.2     1  UNL1       -0.1436
      3 N         144.2961  138.9268  163.4079 N.2     1  UNL1       -0.1519
      4 C         143.6603  139.3099  164.7113 C.2     1  UNL1        0.0865
      5 C         143.5733  138.6033  166.0316 C.3     1  UNL1        0.0736
      6 C         142.8567  139.2474  167.1812 C.2     1  UNL1       -0.0196
      7 C         142.2270  140.5981  167.0105 C.2     1  UNL1       -0.0016
      8 C         142.3140  141.3047  165.6902 C.2     1  UNL1        0.0027
      9 C         143.0306  140.6606  164.5407 C.2     1  UNL1        0.0395
     10 C         141.5104  141.2422  168.1601 C.ar    1  UNL1        0.0294
     11 C         142.1072  142.4383  168.8406 C.ar    1  UNL1        0.0024
     12 C         141.3906  143.0824  169.9903 C.ar    1  UNL1        0.0025
     13 C         140.0771  142.5303  170.4593 C.ar    1  UNL1        0.0320
     14 C         139.4803  141.3342  169.7788 C.ar    1  UNL1        0.1674
     15 F         138.1668  140.7821  170.2478 F       1  UNL1       -0.2018
     16 C         140.1969  140.6901  168.6292 C.ar    1  UNL1        0.1673
     17 F         139.6001  139.4940  167.9486 F       1  UNL1       -0.2018
     18 N         141.3927  142.8407  162.6724 N.am    1  UNL1       -0.2996
     19 C         142.8218  142.4080  162.5287 C.2     1  UNL1        0.2654
     20 O         143.7953  143.2710  161.7822 O.2     1  UNL1       -0.2684
     21 H         140.7538  142.2743  163.1624 H       1  UNL1        0.1498
     22 C         140.9372  144.1365  162.0694 C.3     1  UNL1        0.0898
     23 N         139.6751  144.2884  157.7527 N.3     1  UNL1       -0.2706
     24 C         139.3439  143.0881  158.5891 C.3     1  UNL1        0.0722
     25 C         139.7646  143.0375  160.0281 C.3     1  UNL1        0.0191
     26 C         140.5166  144.1872  160.6305 C.3     1  UNL1        0.0224
     27 C         140.8477  145.3874  159.7941 C.3     1  UNL1        0.0191
     28 C         140.4270  145.4380  158.3552 C.3     1  UNL1        0.0722
     29 C         139.2544  144.3390  156.3138 C.3     1  UNL1        0.1046
     30 C         139.5322  145.5640  155.4939 C.3     1  UNL1        0.1595
     31 C         138.9216  148.0875  155.5909 C.3     1  UNL1        0.1742
     32 O         138.5086  146.6571  155.4081 O.3     1  UNL1       -0.3496
@<TRIPOS>BOND
     1    31    32    1
     2    32    30    1
     3    30    29    1
     4    29    23    1
     5    23    24    1
     6    24    25    1
     7    25    26    1
     8    26    22    1
     9    22    18    1
    10    18    19   am
    11    19    20    2
    12    19     1    1
    13     1     2    2
    14     2     3    1
    15     3     4    2
    16     4     5    1
    17     5     6    1
    18     6     7    2
    19     7    10    1
    20    10    11   ar
    21    11    12   ar
    22    12    13   ar
    23    13    14   ar
    24    14    15    1
    25    14    16   ar
    26    16    17    1
    27     7     8    1
    28     8     9    2
    29    26    27    1
    30    27    28    1
    31    28    23    1
    32     9     1    1
    33     9     4    1
    34    16    10   ar
    35    18    21    1
@<TRIPOS>MOLECULE
*****
 32 35 0 0 0
SMALL
GASTEIGER

@<TRIPOS>ATOM
      1 C         141.0308  144.4418  161.5033 C.2     1  UNL1        0.1571
      2 N         140.4142  145.7709  161.1816 N.2     1  UNL1       -0.1436
      3 N         139.0268  145.7883  161.7517 N.2     1  UNL1       -0.1519
      4 C         138.7860  144.4700  162.4256 C.2     1  UNL1        0.0865
      5 C         137.5990  143.9199  163.1593 C.3     1  UNL1        0.0736
      6 C         137.6505  142.5376  163.7394 C.2     1  UNL1       -0.0196
      7 C         138.8890  141.7055  163.5859 C.2     1  UNL1       -0.0016
      8 C         140.0761  142.2556  162.8523 C.2     1  UNL1        0.0027
      9 C         140.0245  143.6379  162.2721 C.2     1  UNL1        0.0395
     10 C         138.9405  140.3231  164.1661 C.ar    1  UNL1        0.0294
     11 C         138.2408  140.0259  165.4592 C.ar    1  UNL1        0.0024
     12 C         138.2923  138.6436  166.0394 C.ar    1  UNL1        0.0025
     13 C         139.0434  137.5585  165.3264 C.ar    1  UNL1        0.0320
     14 C         139.7431  137.8557  164.0332 C.ar    1  UNL1        0.1674
     15 F         140.4942  136.7706  163.3203 F       1  UNL1       -0.2018
     16 C         139.6916  139.2380  163.4531 C.ar    1  UNL1        0.1673
     17 F         140.3913  139.5352  162.1600 F       1  UNL1       -0.2018
     18 N         142.6329  143.2577  159.8356 N.am    1  UNL1       -0.2996
     19 C         142.4113  143.9952  161.1229 C.2     1  UNL1        0.2654
     20 O         143.5702  144.2859  162.0297 O.2     1  UNL1       -0.2684
     21 H         141.8723  143.0668  159.2403 H       1  UNL1        0.1498
     22 C         144.0134  142.8110  159.4552 C.3     1  UNL1        0.0898
     23 N         144.5697  139.7203  156.2321 N.3     1  UNL1       -0.2706
     24 C         143.4414  139.5878  157.2115 C.3     1  UNL1        0.0722
     25 C         143.2560  140.6181  158.2860 C.3     1  UNL1        0.0191
     26 C         144.1989  141.7808  158.3808 C.3     1  UNL1        0.0224
     27 C         145.3272  141.9133  157.4013 C.3     1  UNL1        0.0191
     28 C         145.5126  140.8831  156.3270 C.3     1  UNL1        0.0722
     29 C         144.7552  138.6901  155.1577 C.3     1  UNL1        0.1046
     30 C         143.9146  137.4478  155.1568 C.3     1  UNL1        0.1595
     31 C         143.6782  134.9160  155.6902 C.3     1  UNL1        0.1742
     32 O         144.3817  136.2256  155.8904 O.3     1  UNL1       -0.3496
@<TRIPOS>BOND
     1    31    32    1
     2    32    30    1
     3    30    29    1
     4    29    23    1
     5    23    24    1
     6    24    25    1
     7    25    26    1
     8    26    22    1
     9    22    18    1
    10    18    19   am
    11    19    20    2
    12    19     1    1
    13     1     2    2
    14     2     3    1
    15     3     4    2
    16     4     5    1
    17     5     6    1
    18     6     7    2
    19     7    10    1
    20    10    11   ar
    21    11    12   ar
    22    12    13   ar
    23    13    14   ar
    24    14    15    1
    25    14    16   ar
    26    16    17    1
    27     7     8    1
    28     8     9    2
    29    26    27    1
    30    27    28    1
    31    28    23    1
    32     9     1    1
    33     9     4    1
    34    16    10   ar
    35    18    21    1
