@<TRIPOS>MOLECULE
*****
 39 42 0 0 0
SMALL
GASTEIGER

@<TRIPOS>ATOM
      1 C         143.8355  141.2220  160.4058 C.ar    1  UNL1        0.0655
      2 C         143.3954  140.0896  161.2856 C.ar    1  UNL1        0.0337
      3 C         143.0195  138.7704  160.6784 C.ar    1  UNL1        0.0862
      4 C         143.0836  138.5838  159.1915 C.ar    1  UNL1        0.1534
      5 C         143.5237  139.7162  158.3117 C.ar    1  UNL1        0.0539
      6 C         143.8997  141.0353  158.9189 C.ar    1  UNL1        0.0647
      7 C         143.4467  143.0700  162.1900 C.2     1  UNL1        0.2497
      8 O         142.6015  142.5932  162.6938 O.2     1  UNL1       -0.2698
      9 N         144.2115  142.5411  161.0130 N.am    1  UNL1       -0.2794
     10 H         144.9601  143.0596  160.6390 H       1  UNL1        0.1552
     11 C         142.8223  145.1505  163.6155 C.2     1  UNL1        0.0048
     12 C         143.8226  144.3891  162.7973 C.2     1  UNL1        0.0580
     13 N         142.5794  137.6381  161.5583 N.pl3   1  UNL1       -0.2801
     14 H         142.9803  136.7456  161.4493 H       1  UNL1        0.1552
     15 C         141.5284  137.8656  162.6041 C.ar    1  UNL1        0.2208
     16 N         141.3501  136.8748  163.7161 N.ar    1  UNL1       -0.2111
     17 C         140.2992  137.1022  164.7619 C.ar    1  UNL1        0.1147
     18 C         139.4266  138.3205  164.6957 C.ar    1  UNL1        0.0945
     19 CL        138.3756  138.5480  165.7416 Cl      1  UNL1       -0.0790
     20 C         139.6049  139.3114  163.5837 C.ar    1  UNL1        0.0977
     21 N         140.6558  139.0838  162.5379 N.ar    1  UNL1       -0.2126
     22 C         138.7323  140.5296  163.5175 C.2     1  UNL1        0.0389
     23 C         137.4754  140.6711  162.7112 C.2     1  UNL1        0.1000
     24 N         136.9297  142.0492  162.9414 N.2     1  UNL1       -0.2478
     25 C         137.8493  142.7594  163.8901 C.2     1  UNL1        0.0634
     26 C         137.8161  144.1399  164.4757 C.3     1  UNL1        0.0717
     27 C         138.8970  144.5813  165.4174 C.2     1  UNL1       -0.0198
     28 C         140.0111  143.6421  165.7735 C.2     1  UNL1       -0.0041
     29 C         140.0443  142.2616  165.1878 C.2     1  UNL1        0.0010
     30 C         138.9633  141.8202  164.2462 C.2     1  UNL1        0.0169
     31 O         142.7076  137.2647  158.5843 O.3     1  UNL1       -0.4701
     32 C         142.1247  137.2137  157.2031 C.3     1  UNL1        0.2525
     33 N         144.3397  142.1676  158.0390 N.pl3   1  UNL1       -0.3033
     34 C         145.3675  142.4498  157.7943 C.3     1  UNL1        0.1123
     35 C         143.3183  143.0530  157.3889 C.3     1  UNL1        0.1082
     36 C         142.7396  144.2117  158.1457 C.3     1  UNL1        0.0938
     37 N         141.5958  143.9938  159.0912 N.3     1  UNL1       -0.2688
     38 C         140.8010  142.7233  159.0268 C.3     1  UNL1        0.0897
     39 C         141.2467  145.0464  160.1013 C.3     1  UNL1        0.0897
@<TRIPOS>BOND
     1    11    12    2
     2    12     7    1
     3     7     8    2
     4     7     9   am
     5     9     1    1
     6     1     2   ar
     7     2     3   ar
     8     3    13    1
     9    13    15    1
    10    15    16   ar
    11    16    17   ar
    12    17    18   ar
    13    18    19    1
    14    18    20   ar
    15    20    22    1
    16    22    23    2
    17    23    24    1
    18    24    25    2
    19    25    26    1
    20    26    27    1
    21    27    28    2
    22    28    29    1
    23    29    30    2
    24    20    21   ar
    25     3     4   ar
    26     4    31    1
    27    31    32    1
    28     4     5   ar
    29     5     6   ar
    30     6    33    1
    31    33    34    1
    32    33    35    1
    33    35    36    1
    34    36    37    1
    35    37    38    1
    36    37    39    1
    37     6     1   ar
    38    21    15   ar
    39    30    22    1
    40    30    25    1
    41     9    10    1
    42    13    14    1
@<TRIPOS>MOLECULE
*****
 39 42 0 0 0
SMALL
GASTEIGER

@<TRIPOS>ATOM
      1 C         140.0873  137.3944  156.8918 C.ar    1  UNL1        0.0655
      2 C         139.8657  138.3140  158.0560 C.ar    1  UNL1        0.0337
      3 C         141.0166  138.6984  158.9380 C.ar    1  UNL1        0.0862
      4 C         142.3891  138.1631  158.6557 C.ar    1  UNL1        0.1534
      5 C         142.6108  137.2435  157.4915 C.ar    1  UNL1        0.0539
      6 C         141.4599  136.8592  156.6096 C.ar    1  UNL1        0.0647
      7 C         138.4494  137.9599  154.9562 C.2     1  UNL1        0.2497
      8 O         138.8455  138.9542  154.7324 O.2     1  UNL1       -0.2698
      9 N         138.9364  137.0101  156.0099 N.am    1  UNL1       -0.2794
     10 H         138.5008  136.1345  156.1228 H       1  UNL1        0.1552
     11 C         137.5560  136.9950  152.7153 C.2     1  UNL1        0.0048
     12 C         137.2985  137.5757  154.0742 C.2     1  UNL1        0.0580
     13 N         140.7949  139.6179  160.1021 N.pl3   1  UNL1       -0.2801
     14 H         140.9547  140.5844  160.0033 H       1  UNL1        0.1552
     15 C         140.3297  139.0652  161.4166 C.ar    1  UNL1        0.2208
     16 N         139.0075  138.3629  161.5091 N.ar    1  UNL1       -0.2111
     17 C         138.5423  137.8101  162.8237 C.ar    1  UNL1        0.1147
     18 C         139.3993  137.9596  164.0457 C.ar    1  UNL1        0.0945
     19 CL        138.9341  137.4068  165.3602 Cl      1  UNL1       -0.0790
     20 C         140.7216  138.6619  163.9531 C.ar    1  UNL1        0.0977
     21 N         141.1867  139.2147  162.6386 N.ar    1  UNL1       -0.2126
     22 C         141.5786  138.8114  165.1750 C.2     1  UNL1        0.0389
     23 C         142.8707  138.0966  165.4386 C.2     1  UNL1        0.1000
     24 N         143.3845  138.5454  166.7744 N.2     1  UNL1       -0.2478
     25 C         142.4100  139.5376  167.3365 C.2     1  UNL1        0.0634
     26 C         142.3948  140.3125  168.6207 C.3     1  UNL1        0.0717
     27 C         141.2634  141.2519  168.9164 C.2     1  UNL1       -0.0198
     28 C         140.1472  141.4163  167.9279 C.2     1  UNL1       -0.0041
     29 C         140.1624  140.6413  166.6437 C.2     1  UNL1        0.0010
     30 C         141.2938  139.7020  166.3480 C.2     1  UNL1        0.0169
     31 O         143.5400  138.5475  159.5376 O.3     1  UNL1       -0.4701
     32 C         143.7903  137.7986  160.8129 C.3     1  UNL1        0.2525
     33 N         141.6816  135.9396  155.4455 N.pl3   1  UNL1       -0.3033
     34 C         141.7104  136.2130  154.3870 C.3     1  UNL1        0.1123
     35 C         141.8943  134.4731  155.6780 C.3     1  UNL1        0.1082
     36 C         143.2195  133.8475  155.3578 C.3     1  UNL1        0.0938
     37 N         143.9713  133.0991  156.4183 N.3     1  UNL1       -0.2688
     38 C         144.6662  131.8137  156.0795 C.3     1  UNL1        0.0897
     39 C         144.0283  133.6361  157.8177 C.3     1  UNL1        0.0897
@<TRIPOS>BOND
     1    11    12    2
     2    12     7    1
     3     7     8    2
     4     7     9   am
     5     9     1    1
     6     1     2   ar
     7     2     3   ar
     8     3    13    1
     9    13    15    1
    10    15    16   ar
    11    16    17   ar
    12    17    18   ar
    13    18    19    1
    14    18    20   ar
    15    20    22    1
    16    22    23    2
    17    23    24    1
    18    24    25    2
    19    25    26    1
    20    26    27    1
    21    27    28    2
    22    28    29    1
    23    29    30    2
    24    20    21   ar
    25     3     4   ar
    26     4    31    1
    27    31    32    1
    28     4     5   ar
    29     5     6   ar
    30     6    33    1
    31    33    34    1
    32    33    35    1
    33    35    36    1
    34    36    37    1
    35    37    38    1
    36    37    39    1
    37     6     1   ar
    38    21    15   ar
    39    30    22    1
    40    30    25    1
    41     9    10    1
    42    13    14    1
@<TRIPOS>MOLECULE
*****
 39 42 0 0 0
SMALL
GASTEIGER

@<TRIPOS>ATOM
      1 C         142.7826  138.7553  158.0706 C.ar    1  UNL1        0.0655
      2 C         142.5745  137.9421  159.3137 C.ar    1  UNL1        0.0337
      3 C         143.0961  138.4373  160.6300 C.ar    1  UNL1        0.0862
      4 C         143.8259  139.7458  160.7032 C.ar    1  UNL1        0.1534
      5 C         144.0340  140.5591  159.4599 C.ar    1  UNL1        0.0539
      6 C         143.5123  140.0637  158.1437 C.ar    1  UNL1        0.0647
      7 C         143.0803  137.3095  155.9326 C.2     1  UNL1        0.2497
      8 O         144.0659  136.9061  156.1806 O.2     1  UNL1       -0.2698
      9 N         142.2609  138.2599  156.7543 N.am    1  UNL1       -0.2794
     10 H         141.3807  138.5586  156.4297 H       1  UNL1        0.1552
     11 C         142.6975  135.3658  154.2516 C.2     1  UNL1        0.0048
     12 C         142.5587  136.8142  154.6163 C.2     1  UNL1        0.0580
     13 N         142.8880  137.6241  161.8731 N.pl3   1  UNL1       -0.2801
     14 H         143.5113  136.8948  162.0943 H       1  UNL1        0.1552
     15 C         141.7303  137.9220  162.7792 C.ar    1  UNL1        0.2208
     16 N         141.3947  136.9837  163.9004 N.ar    1  UNL1       -0.2111
     17 C         140.2371  137.2816  164.8065 C.ar    1  UNL1        0.1147
     18 C         139.4150  138.5177  164.5914 C.ar    1  UNL1        0.0945
     19 CL        138.2573  138.8156  165.4975 Cl      1  UNL1       -0.0790
     20 C         139.7506  139.4560  163.4702 C.ar    1  UNL1        0.0977
     21 N         140.9082  139.1581  162.5642 N.ar    1  UNL1       -0.2126
     22 C         138.9285  140.6921  163.2551 C.2     1  UNL1        0.0389
     23 C         137.8857  140.8838  162.1941 C.2     1  UNL1        0.1000
     24 N         137.3176  142.2637  162.3466 N.2     1  UNL1       -0.2478
     25 C         138.0094  142.9248  163.5018 C.2     1  UNL1        0.0634
     26 C         137.8613  144.2857  164.1149 C.3     1  UNL1        0.0717
     27 C         138.7088  144.6752  165.2896 C.2     1  UNL1       -0.0198
     28 C         139.7044  143.7039  165.8511 C.2     1  UNL1       -0.0041
     29 C         139.8525  142.3430  165.2380 C.2     1  UNL1        0.0010
     30 C         139.0050  141.9534  164.0633 C.2     1  UNL1        0.0169
     31 O         144.3475  140.2411  162.0194 O.3     1  UNL1       -0.4701
     32 C         143.9738  141.6094  162.5073 C.3     1  UNL1        0.2525
     33 N         143.7204  140.8770  156.9006 N.pl3   1  UNL1       -0.3033
     34 C         143.0018  141.5524  156.4280 C.3     1  UNL1        0.1123
     35 C         145.0291  140.8097  156.1706 C.3     1  UNL1        0.1082
     36 C         146.1479  141.7339  156.5500 C.3     1  UNL1        0.0938
     37 N         147.1125  142.2121  155.5056 N.3     1  UNL1       -0.2688
     38 C         148.5674  141.8633  155.6125 C.3     1  UNL1        0.0897
     39 C         146.6222  143.0392  154.3543 C.3     1  UNL1        0.0897
@<TRIPOS>BOND
     1    11    12    2
     2    12     7    1
     3     7     8    2
     4     7     9   am
     5     9     1    1
     6     1     2   ar
     7     2     3   ar
     8     3    13    1
     9    13    15    1
    10    15    16   ar
    11    16    17   ar
    12    17    18   ar
    13    18    19    1
    14    18    20   ar
    15    20    22    1
    16    22    23    2
    17    23    24    1
    18    24    25    2
    19    25    26    1
    20    26    27    1
    21    27    28    2
    22    28    29    1
    23    29    30    2
    24    20    21   ar
    25     3     4   ar
    26     4    31    1
    27    31    32    1
    28     4     5   ar
    29     5     6   ar
    30     6    33    1
    31    33    34    1
    32    33    35    1
    33    35    36    1
    34    36    37    1
    35    37    38    1
    36    37    39    1
    37     6     1   ar
    38    21    15   ar
    39    30    22    1
    40    30    25    1
    41     9    10    1
    42    13    14    1
@<TRIPOS>MOLECULE
*****
 39 42 0 0 0
SMALL
GASTEIGER

@<TRIPOS>ATOM
      1 C         144.0150  142.9435  158.8946 C.ar    1  UNL1        0.0655
      2 C         144.6665  142.7888  160.2368 C.ar    1  UNL1        0.0337
      3 C         143.9407  143.2192  161.4770 C.ar    1  UNL1        0.0862
      4 C         142.5634  143.8044  161.3749 C.ar    1  UNL1        0.1534
      5 C         141.9118  143.9591  160.0326 C.ar    1  UNL1        0.0539
      6 C         142.6376  143.5287  158.7925 C.ar    1  UNL1        0.0647
      7 C         144.8608  141.0549  157.3238 C.2     1  UNL1        0.2497
      8 O         144.4659  140.2144  157.9011 O.2     1  UNL1       -0.2698
      9 N         144.7408  142.5130  157.6544 N.am    1  UNL1       -0.2794
     10 H         145.1384  143.1875  157.0576 H       1  UNL1        0.1552
     11 C         146.7168  141.4536  155.5499 C.2     1  UNL1        0.0048
     12 C         145.5866  140.6243  156.0836 C.2     1  UNL1        0.0580
     13 N         144.5923  143.0645  162.8191 N.pl3   1  UNL1       -0.2801
     14 H         145.1885  143.7694  163.1611 H       1  UNL1        0.1552
     15 C         144.3357  141.8357  163.6403 C.ar    1  UNL1        0.2208
     16 N         145.2430  140.6477  163.5160 N.ar    1  UNL1       -0.2111
     17 C         144.9864  139.4189  164.3372 C.ar    1  UNL1        0.1147
     18 C         143.8225  139.3783  165.2826 C.ar    1  UNL1        0.0945
     19 CL        143.5659  138.1495  166.1038 Cl      1  UNL1       -0.0790
     20 C         142.9153  140.5664  165.4069 C.ar    1  UNL1        0.0977
     21 N         143.1719  141.7951  164.5858 N.ar    1  UNL1       -0.2126
     22 C         141.7515  140.5257  166.3524 C.2     1  UNL1        0.0389
     23 C         141.6039  141.3385  167.6044 C.2     1  UNL1        0.1000
     24 N         140.2921  140.9802  168.2376 N.2     1  UNL1       -0.2478
     25 C         139.6290  139.9460  167.3769 C.2     1  UNL1        0.0634
     26 C         138.3205  139.2238  167.5036 C.3     1  UNL1        0.0717
     27 C         137.9139  138.2207  166.4651 C.2     1  UNL1       -0.0198
     28 C         138.8159  137.9398  165.3000 C.2     1  UNL1       -0.0041
     29 C         140.1244  138.6620  165.1733 C.2     1  UNL1        0.0010
     30 C         140.5310  139.6651  166.2118 C.2     1  UNL1        0.0169
     31 O         141.8375  144.2349  162.6150 O.3     1  UNL1       -0.4701
     32 C         140.6895  145.1952  162.5169 C.3     1  UNL1        0.2525
     33 N         141.9860  143.6834  157.4503 N.pl3   1  UNL1       -0.3033
     34 C         141.3442  142.9579  156.9428 C.3     1  UNL1        0.1123
     35 C         142.1894  144.9409  156.6583 C.3     1  UNL1        0.1082
     36 C         141.2219  146.0788  156.7960 C.3     1  UNL1        0.0938
     37 N         140.3517  146.4677  155.6377 N.3     1  UNL1       -0.2688
     38 C         139.0186  147.1098  155.8835 C.3     1  UNL1        0.0897
     39 C         140.8147  146.2144  154.2336 C.3     1  UNL1        0.0897
@<TRIPOS>BOND
     1    11    12    2
     2    12     7    1
     3     7     8    2
     4     7     9   am
     5     9     1    1
     6     1     2   ar
     7     2     3   ar
     8     3    13    1
     9    13    15    1
    10    15    16   ar
    11    16    17   ar
    12    17    18   ar
    13    18    19    1
    14    18    20   ar
    15    20    22    1
    16    22    23    2
    17    23    24    1
    18    24    25    2
    19    25    26    1
    20    26    27    1
    21    27    28    2
    22    28    29    1
    23    29    30    2
    24    20    21   ar
    25     3     4   ar
    26     4    31    1
    27    31    32    1
    28     4     5   ar
    29     5     6   ar
    30     6    33    1
    31    33    34    1
    32    33    35    1
    33    35    36    1
    34    36    37    1
    35    37    38    1
    36    37    39    1
    37     6     1   ar
    38    21    15   ar
    39    30    22    1
    40    30    25    1
    41     9    10    1
    42    13    14    1
@<TRIPOS>MOLECULE
*****
 39 42 0 0 0
SMALL
GASTEIGER

@<TRIPOS>ATOM
      1 C         142.6809  138.3264  158.1470 C.ar    1  UNL1        0.0655
      2 C         142.5726  137.6747  159.4937 C.ar    1  UNL1        0.0337
      3 C         143.1441  138.3531  160.7034 C.ar    1  UNL1        0.0862
      4 C         143.8240  139.6831  160.5663 C.ar    1  UNL1        0.1534
      5 C         143.9323  140.3348  159.2195 C.ar    1  UNL1        0.0539
      6 C         143.3608  139.6564  158.0099 C.ar    1  UNL1        0.0647
      7 C         142.9847  136.7846  156.0781 C.2     1  UNL1        0.2497
      8 O         144.0470  136.5716  156.2253 O.2     1  UNL1       -0.2698
      9 N         142.1094  137.6480  156.9374 N.am    1  UNL1       -0.2794
     10 H         141.1598  137.7694  156.7075 H       1  UNL1        0.1552
     11 C         141.7406  134.7723  155.0041 C.2     1  UNL1        0.0048
     12 C         142.4132  136.1061  154.8684 C.2     1  UNL1        0.0580
     13 N         143.0358  137.7014  162.0500 N.pl3   1  UNL1       -0.2801
     14 H         143.7464  137.0958  162.3624 H       1  UNL1        0.1552
     15 C         141.8448  137.9723  162.9207 C.ar    1  UNL1        0.2208
     16 N         141.5013  137.0299  164.0360 N.ar    1  UNL1       -0.2111
     17 C         140.3103  137.3009  164.9068 C.ar    1  UNL1        0.1147
     18 C         139.4629  138.5142  164.6622 C.ar    1  UNL1        0.0945
     19 CL        138.2719  138.7851  165.5329 Cl      1  UNL1       -0.0790
     20 C         139.8065  139.4566  163.5468 C.ar    1  UNL1        0.0977
     21 N         140.9974  139.1856  162.6762 N.ar    1  UNL1       -0.2126
     22 C         138.9590  140.6699  163.3023 C.2     1  UNL1        0.0389
     23 C         137.9015  140.8086  162.2476 C.2     1  UNL1        0.1000
     24 N         137.3092  142.1819  162.3630 N.2     1  UNL1       -0.2478
     25 C         138.0008  142.8919  163.4889 C.2     1  UNL1        0.0634
     26 C         137.8337  144.2685  164.0606 C.3     1  UNL1        0.0717
     27 C         138.6863  144.7107  165.2128 C.2     1  UNL1       -0.0198
     28 C         139.7060  143.7762  165.7933 C.2     1  UNL1       -0.0041
     29 C         139.8730  142.3995  165.2216 C.2     1  UNL1        0.0010
     30 C         139.0204  141.9574  164.0695 C.2     1  UNL1        0.0169
     31 O         144.3955  140.3615  161.7759 O.3     1  UNL1       -0.4701
     32 C         143.8258  141.6684  162.2422 C.3     1  UNL1        0.2525
     33 N         143.4692  140.3081  156.6632 N.pl3   1  UNL1       -0.3033
     34 C         144.3088  140.2419  155.9657 C.3     1  UNL1        0.1123
     35 C         142.3453  141.1577  156.1485 C.3     1  UNL1        0.1082
     36 C         141.3117  141.6891  157.0968 C.3     1  UNL1        0.0938
     37 N         141.3604  143.1237  157.5322 N.3     1  UNL1       -0.2688
     38 C         142.6303  143.6959  158.0889 C.3     1  UNL1        0.0897
     39 C         140.1392  143.9862  157.4110 C.3     1  UNL1        0.0897
@<TRIPOS>BOND
     1    11    12    2
     2    12     7    1
     3     7     8    2
     4     7     9   am
     5     9     1    1
     6     1     2   ar
     7     2     3   ar
     8     3    13    1
     9    13    15    1
    10    15    16   ar
    11    16    17   ar
    12    17    18   ar
    13    18    19    1
    14    18    20   ar
    15    20    22    1
    16    22    23    2
    17    23    24    1
    18    24    25    2
    19    25    26    1
    20    26    27    1
    21    27    28    2
    22    28    29    1
    23    29    30    2
    24    20    21   ar
    25     3     4   ar
    26     4    31    1
    27    31    32    1
    28     4     5   ar
    29     5     6   ar
    30     6    33    1
    31    33    34    1
    32    33    35    1
    33    35    36    1
    34    36    37    1
    35    37    38    1
    36    37    39    1
    37     6     1   ar
    38    21    15   ar
    39    30    22    1
    40    30    25    1
    41     9    10    1
    42    13    14    1
@<TRIPOS>MOLECULE
*****
 39 42 0 0 0
SMALL
GASTEIGER

@<TRIPOS>ATOM
      1 C         141.7651  140.1759  166.1233 C.ar    1  UNL1        0.0655
      2 C         142.5764  139.3939  165.1333 C.ar    1  UNL1        0.0337
      3 C         143.7006  140.0571  164.3941 C.ar    1  UNL1        0.0862
      4 C         144.0134  141.5025  164.6450 C.ar    1  UNL1        0.1534
      5 C         143.2021  142.2847  165.6350 C.ar    1  UNL1        0.0539
      6 C         142.0779  141.6214  166.3741 C.ar    1  UNL1        0.0647
      7 C         139.2419  139.5915  166.3273 C.2     1  UNL1        0.2497
      8 O         138.9135  140.0985  165.4159 O.2     1  UNL1       -0.2698
      9 N         140.6410  139.5126  166.8625 N.am    1  UNL1       -0.2794
     10 H         140.8214  139.0255  167.6988 H       1  UNL1        0.1552
     11 C         137.6765  137.5480  166.6789 C.2     1  UNL1        0.0048
     12 C         138.1177  138.9282  167.0664 C.2     1  UNL1        0.0580
     13 N         144.5119  139.2749  163.4042 N.pl3   1  UNL1       -0.2801
     14 H         145.3688  138.8743  163.6771 H       1  UNL1        0.1552
     15 C         144.0177  139.1031  161.9984 C.ar    1  UNL1        0.2208
     16 N         143.5133  137.7673  161.5388 N.ar    1  UNL1       -0.2111
     17 C         143.0191  137.5955  160.1330 C.ar    1  UNL1        0.1147
     18 C         143.0292  138.7595  159.1869 C.ar    1  UNL1        0.0945
     19 CL        142.5350  138.5876  157.7811 Cl      1  UNL1       -0.0790
     20 C         143.5336  140.0953  159.6466 C.ar    1  UNL1        0.0977
     21 N         144.0278  140.2671  161.0523 N.ar    1  UNL1       -0.2126
     22 C         143.5437  141.2593  158.7005 C.2     1  UNL1        0.0389
     23 C         144.3647  141.3721  157.4502 C.2     1  UNL1        0.1000
     24 N         144.0630  142.6973  156.8156 N.2     1  UNL1       -0.2478
     25 C         143.0555  143.4035  157.6737 C.2     1  UNL1        0.0634
     26 C         142.3889  144.7410  157.5447 C.3     1  UNL1        0.0717
     27 C         141.4014  145.1898  158.5808 C.2     1  UNL1       -0.0198
     28 C         141.0805  144.3010  159.7457 C.2     1  UNL1       -0.0041
     29 C         141.7471  142.9635  159.8746 C.2     1  UNL1        0.0010
     30 C         142.7346  142.5148  158.8386 C.2     1  UNL1        0.0169
     31 O         145.1376  142.1658  163.9058 O.3     1  UNL1       -0.4701
     32 C         144.8396  143.1512  162.8149 C.3     1  UNL1        0.2525
     33 N         141.2667  142.4035  167.3641 N.pl3   1  UNL1       -0.3033
     34 C         140.3452  142.9587  167.1675 C.3     1  UNL1        0.1123
     35 C         141.7021  142.4794  168.7975 C.3     1  UNL1        0.1082
     36 C         142.4868  141.3538  169.4035 C.3     1  UNL1        0.0938
     37 N         141.7808  140.1201  169.8826 N.3     1  UNL1       -0.2688
     38 C         142.5236  138.8206  169.9793 C.3     1  UNL1        0.0897
     39 C         140.3318  140.1859  170.2651 C.3     1  UNL1        0.0897
@<TRIPOS>BOND
     1    11    12    2
     2    12     7    1
     3     7     8    2
     4     7     9   am
     5     9     1    1
     6     1     2   ar
     7     2     3   ar
     8     3    13    1
     9    13    15    1
    10    15    16   ar
    11    16    17   ar
    12    17    18   ar
    13    18    19    1
    14    18    20   ar
    15    20    22    1
    16    22    23    2
    17    23    24    1
    18    24    25    2
    19    25    26    1
    20    26    27    1
    21    27    28    2
    22    28    29    1
    23    29    30    2
    24    20    21   ar
    25     3     4   ar
    26     4    31    1
    27    31    32    1
    28     4     5   ar
    29     5     6   ar
    30     6    33    1
    31    33    34    1
    32    33    35    1
    33    35    36    1
    34    36    37    1
    35    37    38    1
    36    37    39    1
    37     6     1   ar
    38    21    15   ar
    39    30    22    1
    40    30    25    1
    41     9    10    1
    42    13    14    1
@<TRIPOS>MOLECULE
*****
 39 42 0 0 0
SMALL
GASTEIGER

@<TRIPOS>ATOM
      1 C         141.4537  144.1729  160.1434 C.ar    1  UNL1        0.0655
      2 C         142.6408  143.6624  160.9051 C.ar    1  UNL1        0.0337
      3 C         143.7990  143.0551  160.1703 C.ar    1  UNL1        0.0862
      4 C         143.7701  142.9584  158.6738 C.ar    1  UNL1        0.1534
      5 C         142.5830  143.4690  157.9119 C.ar    1  UNL1        0.0539
      6 C         141.4249  144.0762  158.6468 C.ar    1  UNL1        0.0647
      7 C         139.5239  143.9608  161.8697 C.2     1  UNL1        0.2497
      8 O         139.7044  142.9178  162.1441 O.2     1  UNL1       -0.2698
      9 N         140.2956  144.7801  160.8782 N.am    1  UNL1       -0.2794
     10 H         140.0419  145.7163  160.7097 H       1  UNL1        0.1552
     11 C         137.8441  143.9171  163.8514 C.2     1  UNL1        0.0048
     12 C         138.3657  144.5679  162.6046 C.2     1  UNL1        0.0580
     13 N         144.9860  142.5446  160.9322 N.pl3   1  UNL1       -0.2801
     14 H         145.8928  142.8369  160.6842 H       1  UNL1        0.1552
     15 C         144.7913  141.5889  162.0718 C.ar    1  UNL1        0.2208
     16 N         145.8205  141.4990  163.1593 N.ar    1  UNL1       -0.2111
     17 C         145.6259  140.5433  164.2989 C.ar    1  UNL1        0.1147
     18 C         144.4021  139.6774  164.3509 C.ar    1  UNL1        0.0945
     19 CL        144.2075  138.7217  165.4905 Cl      1  UNL1       -0.0790
     20 C         143.3729  139.7673  163.2633 C.ar    1  UNL1        0.0977
     21 N         143.5676  140.7230  162.1238 N.ar    1  UNL1       -0.2126
     22 C         142.1491  138.9015  163.3154 C.2     1  UNL1        0.0389
     23 C         141.8321  137.7664  162.3875 C.2     1  UNL1        0.1000
     24 N         140.5146  137.1821  162.8031 N.2     1  UNL1       -0.2478
     25 C         140.0174  137.9561  163.9879 C.2     1  UNL1        0.0634
     26 C         138.7752  137.8306  164.8194 C.3     1  UNL1        0.0717
     27 C         138.5434  138.7677  165.9674 C.2     1  UNL1       -0.0198
     28 C         139.5536  139.8303  166.2840 C.2     1  UNL1       -0.0041
     29 C         140.7957  139.9558  165.4526 C.2     1  UNL1        0.0010
     30 C         141.0276  139.0187  164.3045 C.2     1  UNL1        0.0169
     31 O         144.9283  142.3512  157.9389 O.3     1  UNL1       -0.4701
     32 C         144.8032  140.9800  157.3439 C.3     1  UNL1        0.2525
     33 N         140.2379  144.5867  157.8849 N.pl3   1  UNL1       -0.3033
     34 C         140.1038  145.5896  157.4700 C.3     1  UNL1        0.1123
     35 C         139.0691  143.6835  157.6239 C.3     1  UNL1        0.1082
     36 C         138.8912  143.0589  156.2718 C.3     1  UNL1        0.0938
     37 N         137.6670  143.3633  155.4603 N.3     1  UNL1       -0.2688
     38 C         137.4175  144.7603  154.9743 C.3     1  UNL1        0.0897
     39 C         136.6921  142.2708  155.1347 C.3     1  UNL1        0.0897
@<TRIPOS>BOND
     1    11    12    2
     2    12     7    1
     3     7     8    2
     4     7     9   am
     5     9     1    1
     6     1     2   ar
     7     2     3   ar
     8     3    13    1
     9    13    15    1
    10    15    16   ar
    11    16    17   ar
    12    17    18   ar
    13    18    19    1
    14    18    20   ar
    15    20    22    1
    16    22    23    2
    17    23    24    1
    18    24    25    2
    19    25    26    1
    20    26    27    1
    21    27    28    2
    22    28    29    1
    23    29    30    2
    24    20    21   ar
    25     3     4   ar
    26     4    31    1
    27    31    32    1
    28     4     5   ar
    29     5     6   ar
    30     6    33    1
    31    33    34    1
    32    33    35    1
    33    35    36    1
    34    36    37    1
    35    37    38    1
    36    37    39    1
    37     6     1   ar
    38    21    15   ar
    39    30    22    1
    40    30    25    1
    41     9    10    1
    42    13    14    1
@<TRIPOS>MOLECULE
*****
 39 42 0 0 0
SMALL
GASTEIGER

@<TRIPOS>ATOM
      1 C         138.3295  140.2517  158.2042 C.ar    1  UNL1        0.0655
      2 C         137.7309  140.4202  159.5693 C.ar    1  UNL1        0.0337
      3 C         138.2025  139.5627  160.7062 C.ar    1  UNL1        0.0862
      4 C         139.2726  138.5368  160.4779 C.ar    1  UNL1        0.1534
      5 C         139.8712  138.3682  159.1128 C.ar    1  UNL1        0.0539
      6 C         139.3996  139.2257  157.9760 C.ar    1  UNL1        0.0647
      7 C         136.4644  140.9496  156.5357 C.2     1  UNL1        0.2497
      8 O         135.7017  140.2496  156.8878 O.2     1  UNL1       -0.2698
      9 N         137.8578  141.1092  157.0674 N.am    1  UNL1       -0.2794
     10 H         138.4629  141.7766  156.6704 H       1  UNL1        0.1552
     11 C         134.8773  141.3335  154.5147 C.2     1  UNL1        0.0048
     12 C         135.9927  141.8071  155.3988 C.2     1  UNL1        0.0580
     13 N         137.6039  139.7313  162.0711 N.pl3   1  UNL1       -0.2801
     14 H         136.9562  139.0715  162.4095 H       1  UNL1        0.1552
     15 C         137.9919  140.9051  162.9206 C.ar    1  UNL1        0.2208
     16 N         137.1672  142.1577  162.8908 N.ar    1  UNL1       -0.2111
     17 C         137.5552  143.3315  163.7402 C.ar    1  UNL1        0.1147
     18 C         138.7680  143.2527  164.6195 C.ar    1  UNL1        0.0945
     19 CL        139.1560  144.4265  165.4690 Cl      1  UNL1       -0.0790
     20 C         139.5927  142.0000  164.6493 C.ar    1  UNL1        0.0977
     21 N         139.2046  140.8263  163.7999 N.ar    1  UNL1       -0.2126
     22 C         140.8054  141.9213  165.5286 C.2     1  UNL1        0.0389
     23 C         142.1639  142.4707  165.2082 C.2     1  UNL1        0.1000
     24 N         143.0706  142.1682  166.3643 N.2     1  UNL1       -0.2478
     25 C         142.2725  141.4318  167.3991 C.2     1  UNL1        0.0634
     26 C         142.6396  140.8806  168.7449 C.3     1  UNL1        0.0717
     27 C         141.6068  140.1767  169.5742 C.2     1  UNL1       -0.0198
     28 C         140.2068  140.0241  169.0577 C.2     1  UNL1       -0.0041
     29 C         139.8397  140.5753  167.7119 C.2     1  UNL1        0.0010
     30 C         140.8725  141.2792  166.8826 C.2     1  UNL1        0.0169
     31 O         139.7443  137.6793  161.6147 O.3     1  UNL1       -0.4701
     32 C         141.1339  137.8466  162.1541 C.3     1  UNL1        0.2525
     33 N         139.9982  139.0572  156.6110 N.pl3   1  UNL1       -0.3033
     34 C         140.8870  139.5570  156.2159 C.3     1  UNL1        0.1123
     35 C         139.3663  138.1194  155.6255 C.3     1  UNL1        0.1082
     36 C         139.2187  138.5281  154.1898 C.3     1  UNL1        0.0938
     37 N         137.8579  138.8151  153.6279 N.3     1  UNL1       -0.2688
     38 C         136.6688  138.0370  154.1080 C.3     1  UNL1        0.0897
     39 C         137.6861  139.8803  152.5858 C.3     1  UNL1        0.0897
@<TRIPOS>BOND
     1    11    12    2
     2    12     7    1
     3     7     8    2
     4     7     9   am
     5     9     1    1
     6     1     2   ar
     7     2     3   ar
     8     3    13    1
     9    13    15    1
    10    15    16   ar
    11    16    17   ar
    12    17    18   ar
    13    18    19    1
    14    18    20   ar
    15    20    22    1
    16    22    23    2
    17    23    24    1
    18    24    25    2
    19    25    26    1
    20    26    27    1
    21    27    28    2
    22    28    29    1
    23    29    30    2
    24    20    21   ar
    25     3     4   ar
    26     4    31    1
    27    31    32    1
    28     4     5   ar
    29     5     6   ar
    30     6    33    1
    31    33    34    1
    32    33    35    1
    33    35    36    1
    34    36    37    1
    35    37    38    1
    36    37    39    1
    37     6     1   ar
    38    21    15   ar
    39    30    22    1
    40    30    25    1
    41     9    10    1
    42    13    14    1
@<TRIPOS>MOLECULE
*****
 39 42 0 0 0
SMALL
GASTEIGER

@<TRIPOS>ATOM
      1 C         140.0198  141.3185  165.7589 C.ar    1  UNL1        0.0655
      2 C         139.3502  142.3155  164.8602 C.ar    1  UNL1        0.0337
      3 C         140.1386  143.4540  164.2839 C.ar    1  UNL1        0.0862
      4 C         141.5967  143.5956  164.6063 C.ar    1  UNL1        0.1534
      5 C         142.2664  142.5986  165.5050 C.ar    1  UNL1        0.0539
      6 C         141.4779  141.4600  166.0813 C.ar    1  UNL1        0.0647
      7 C         138.9792  138.9507  165.5135 C.2     1  UNL1        0.2497
      8 O         139.3138  138.7634  164.4895 O.2     1  UNL1       -0.2698
      9 N         139.2313  140.1800  166.3352 N.am    1  UNL1       -0.2794
     10 H         138.8793  140.2396  167.2527 H       1  UNL1        0.1552
     11 C         137.2575  138.0519  167.2394 C.2     1  UNL1        0.0048
     12 C         138.1907  137.8121  166.0898 C.2     1  UNL1        0.0580
     13 N         139.4689  144.4509  163.3852 N.pl3   1  UNL1       -0.2801
     14 H         138.9088  145.1628  163.7707 H       1  UNL1        0.1552
     15 C         139.6527  144.3633  161.8991 C.ar    1  UNL1        0.2208
     16 N         140.1184  145.5633  161.1289 N.ar    1  UNL1       -0.2111
     17 C         140.3022  145.4756  159.6428 C.ar    1  UNL1        0.1147
     18 C         140.0203  144.1880  158.9269 C.ar    1  UNL1        0.0945
     19 CL        140.2041  144.1003  157.4408 Cl      1  UNL1       -0.0790
     20 C         139.5546  142.9879  159.6971 C.ar    1  UNL1        0.0977
     21 N         139.3709  143.0756  161.1831 N.ar    1  UNL1       -0.2126
     22 C         139.2727  141.7003  158.9812 C.2     1  UNL1        0.0389
     23 C         137.9642  141.3019  158.3655 C.2     1  UNL1        0.1000
     24 N         138.1327  139.9404  157.7591 N.2     1  UNL1       -0.2478
     25 C         139.5454  139.4972  157.9999 C.2     1  UNL1        0.0634
     26 C         140.2812  138.2439  157.6290 C.3     1  UNL1        0.0717
     27 C         141.7215  138.0782  158.0135 C.2     1  UNL1       -0.0198
     28 C         142.4261  139.1659  158.7688 C.2     1  UNL1       -0.0041
     29 C         141.6903  140.4192  159.1397 C.2     1  UNL1        0.0010
     30 C         140.2500  140.5849  158.7552 C.2     1  UNL1        0.0169
     31 O         142.3852  144.7341  164.0300 O.3     1  UNL1       -0.4701
     32 C         143.3870  144.4784  162.9433 C.3     1  UNL1        0.2525
     33 N         142.1476  140.4631  166.9800 N.pl3   1  UNL1       -0.3033
     34 C         142.4235  140.6037  168.0288 C.3     1  UNL1        0.1123
     35 C         142.5090  139.1050  166.4559 C.3     1  UNL1        0.1082
     36 C         143.7615  138.9204  165.6515 C.3     1  UNL1        0.0938
     37 N         143.8381  139.4510  164.2505 N.3     1  UNL1       -0.2688
     38 C         142.6989  139.2277  163.3006 C.3     1  UNL1        0.0897
     39 C         145.0539  140.2050  163.7995 C.3     1  UNL1        0.0897
@<TRIPOS>BOND
     1    11    12    2
     2    12     7    1
     3     7     8    2
     4     7     9   am
     5     9     1    1
     6     1     2   ar
     7     2     3   ar
     8     3    13    1
     9    13    15    1
    10    15    16   ar
    11    16    17   ar
    12    17    18   ar
    13    18    19    1
    14    18    20   ar
    15    20    22    1
    16    22    23    2
    17    23    24    1
    18    24    25    2
    19    25    26    1
    20    26    27    1
    21    27    28    2
    22    28    29    1
    23    29    30    2
    24    20    21   ar
    25     3     4   ar
    26     4    31    1
    27    31    32    1
    28     4     5   ar
    29     5     6   ar
    30     6    33    1
    31    33    34    1
    32    33    35    1
    33    35    36    1
    34    36    37    1
    35    37    38    1
    36    37    39    1
    37     6     1   ar
    38    21    15   ar
    39    30    22    1
    40    30    25    1
    41     9    10    1
    42    13    14    1
