@<TRIPOS>MOLECULE
*****
 43 47 0 0 0
SMALL
GASTEIGER

@<TRIPOS>ATOM
      1 C         139.2779  140.6394  159.4602 C.3     1  UNL1        0.0832
      2 C         139.2301  139.7170  158.2783 C.3     1  UNL1        0.0374
      3 C         138.7689  140.2287  156.9459 C.3     1  UNL1        0.0738
      4 N         138.3556  141.6628  156.7954 N.3     1  UNL1       -0.2734
      5 C         138.4034  142.5851  157.9773 C.3     1  UNL1        0.0828
      6 C         138.8646  142.0734  159.3097 C.3     1  UNL1        0.1103
      7 C         137.8944  142.1745  155.4628 C.3     1  UNL1        0.0575
      8 C         137.2753  143.5365  155.3559 C.3     1  UNL1        0.0160
      9 C         136.8141  144.0482  154.0233 C.3     1  UNL1        0.0014
     10 C         136.9720  143.1978  152.7978 C.3     1  UNL1        0.0001
     11 C         137.5911  141.8356  152.9049 C.3     1  UNL1        0.0014
     12 C         138.0523  141.3240  154.2374 C.3     1  UNL1        0.0160
     13 O         137.2813  139.5807  161.4333 O.2     1  UNL1       -0.2684
     14 C         138.7408  139.5983  161.7793 C.2     1  UNL1        0.2669
     15 N         139.7391  140.1277  160.7928 N.am    1  UNL1       -0.3006
     16 H         140.6970  140.1393  161.0198 H       1  UNL1        0.1497
     17 C         139.2020  139.0867  163.1117 C.ar    1  UNL1        0.1761
     18 C         139.6313  139.9264  164.2782 C.ar    1  UNL1        0.0673
     19 C         140.0094  139.0041  165.3991 C.ar    1  UNL1        0.1792
     20 O         139.8137  137.5944  164.9254 O.2     1  UNL1       -0.3532
     21 N         139.3147  137.6454  163.5118 N.ar    1  UNL1       -0.0723
     22 C         140.4975  139.4188  166.7555 C.ar    1  UNL1        0.0648
     23 C         139.5167  139.8430  167.8081 C.ar    1  UNL1        0.0077
     24 C         140.0048  140.2577  169.1645 C.ar    1  UNL1        0.0299
     25 C         141.4737  140.2481  169.4682 C.ar    1  UNL1        0.1424
     26 F         141.9618  140.6627  170.8246 F       1  UNL1       -0.2041
     27 C         142.4544  139.8238  168.4156 C.ar    1  UNL1        0.0593
     28 C         141.9663  139.4092  167.0592 C.ar    1  UNL1        0.1453
     29 F         142.9471  138.9849  166.0066 F       1  UNL1       -0.2040
     30 C         138.9125  142.9958  160.4917 C.2     1  UNL1        0.2252
     31 O         137.6857  143.2067  161.3286 O.2     1  UNL1       -0.2750
     32 N         140.1872  143.7071  160.8367 N.am    1  UNL1       -0.3000
     33 H         140.9924  143.5686  160.2874 H       1  UNL1        0.1498
     34 CA        140.2351  144.6294  162.0187 C.3     1  UNL1        0.1236
     35 C         140.4088  144.0704  163.3997 C.ar    1  UNL1       -0.0021
     36 C         139.3098  144.2138  164.4105 C.ar    1  UNL1       -0.0026
     37 C         139.4834  143.6547  165.7916 C.ar    1  UNL1       -0.0003
     38 C         140.7560  142.9523  166.1618 C.ar    1  UNL1       -0.0000
     39 C         141.8550  142.8089  165.1510 C.ar    1  UNL1       -0.0003
     40 C         141.6814  143.3679  163.7700 C.ar    1  UNL1       -0.0026
     41 C         140.1094  146.1109  161.8196 C.3     1  UNL1        0.1611
     42 O         138.8943  146.6767  161.1464 O.3     1  UNL1       -0.3799
     43 H         138.8724  146.3862  160.2212 H       1  UNL1        0.2105
@<TRIPOS>BOND
     1    13    14    2
     2    14    15   am
     3     1    15    1
     4     1     2    1
     5     2     3    1
     6     3     4    1
     7     4     7    1
     8     7     8    1
     9     8     9    1
    10     9    10    1
    11    10    11    1
    12    11    12    1
    13     4     5    1
    14     5     6    1
    15     6    30    1
    16    30    31    2
    17    30    32   am
    18    32    34    1
    19    34    41    1
    20    41    42    1
    21    34    35    1
    22    35    36   ar
    23    36    37   ar
    24    37    38   ar
    25    38    39   ar
    26    39    40   ar
    27    14    17    1
    28    17    18   ar
    29    18    19   ar
    30    19    22    1
    31    22    23   ar
    32    23    24   ar
    33    24    25   ar
    34    25    26    1
    35    25    27   ar
    36    27    28   ar
    37    28    29    1
    38    19    20   ar
    39    20    21   ar
    40     6     1    1
    41    40    35   ar
    42    21    17   ar
    43    12     7    1
    44    28    22   ar
    45    15    16    1
    46    32    33    1
    47    42    43    1
@<TRIPOS>MOLECULE
*****
 43 47 0 0 0
SMALL
GASTEIGER

@<TRIPOS>ATOM
      1 C         141.4221  144.1302  161.0710 C.3     1  UNL1        0.0832
      2 C         140.6589  145.3821  160.7546 C.3     1  UNL1        0.0374
      3 C         140.5135  145.8322  159.3311 C.3     1  UNL1        0.0738
      4 N         141.1312  145.0304  158.2241 N.3     1  UNL1       -0.2734
      5 C         141.8944  143.7785  158.5405 C.3     1  UNL1        0.0828
      6 C         142.0399  143.3284  159.9639 C.3     1  UNL1        0.1103
      7 C         140.9857  145.4806  156.8006 C.3     1  UNL1        0.0575
      8 C         139.9660  146.5211  156.4436 C.3     1  UNL1        0.0160
      9 C         139.8205  146.9713  155.0201 C.3     1  UNL1        0.0014
     10 C         140.6948  146.3810  153.9537 C.3     1  UNL1        0.0001
     11 C         141.7146  145.3405  154.3109 C.3     1  UNL1        0.0014
     12 C         141.8601  144.8903  155.7343 C.3     1  UNL1        0.0160
     13 O         144.0556  144.4281  162.4767 O.2     1  UNL1       -0.2684
     14 C         142.8843  143.8289  163.1973 C.2     1  UNL1        0.2669
     15 N         141.5676  143.6799  162.4944 N.am    1  UNL1       -0.3006
     16 H         140.7989  143.2867  162.9674 H       1  UNL1        0.1497
     17 C         143.0299  143.3788  164.6207 C.ar    1  UNL1        0.1761
     18 C         142.0067  142.6226  165.4153 C.ar    1  UNL1        0.0673
     19 C         142.5685  142.3822  166.7851 C.ar    1  UNL1        0.1792
     20 O         143.9391  142.9898  166.8371 O.2     1  UNL1       -0.3532
     21 N         144.2241  143.6057  165.4994 N.ar    1  UNL1       -0.0723
     22 C         141.8808  141.6609  167.9061 C.ar    1  UNL1        0.0648
     23 C         142.4106  140.3423  168.3863 C.ar    1  UNL1        0.0077
     24 C         141.7228  139.6210  169.5073 C.ar    1  UNL1        0.0299
     25 C         140.5052  140.2183  170.1481 C.ar    1  UNL1        0.1424
     26 F         139.8174  139.4970  171.2691 F       1  UNL1       -0.2041
     27 C         139.9754  141.5369  169.6680 C.ar    1  UNL1        0.0593
     28 C         140.6632  142.2582  168.5470 C.ar    1  UNL1        0.1453
     29 F         140.1334  143.5768  168.0668 F       1  UNL1       -0.2040
     30 C         142.8031  142.0764  160.2804 C.2     1  UNL1        0.2252
     31 O         144.2804  142.0146  160.0281 O.2     1  UNL1       -0.2750
     32 N         142.0889  140.8862  160.8491 N.am    1  UNL1       -0.3000
     33 H         141.1193  140.9268  161.0147 H       1  UNL1        0.1498
     34 CA        142.8521  139.6342  161.1656 C.3     1  UNL1        0.1236
     35 C         143.2403  139.3304  162.5822 C.ar    1  UNL1       -0.0021
     36 C         144.5716  139.7793  163.1078 C.ar    1  UNL1       -0.0026
     37 C         144.9598  139.4755  164.5245 C.ar    1  UNL1       -0.0003
     38 C         144.0169  138.7227  165.4156 C.ar    1  UNL1       -0.0000
     39 C         142.6855  138.2737  164.8900 C.ar    1  UNL1       -0.0003
     40 C         142.2973  138.5776  163.4733 C.ar    1  UNL1       -0.0026
     41 C         143.2270  138.6861  160.0653 C.3     1  UNL1        0.1611
     42 O         143.8413  139.2095  158.8010 O.3     1  UNL1       -0.3799
     43 H         143.1941  139.7572  158.3297 H       1  UNL1        0.2105
@<TRIPOS>BOND
     1    13    14    2
     2    14    15   am
     3     1    15    1
     4     1     2    1
     5     2     3    1
     6     3     4    1
     7     4     7    1
     8     7     8    1
     9     8     9    1
    10     9    10    1
    11    10    11    1
    12    11    12    1
    13     4     5    1
    14     5     6    1
    15     6    30    1
    16    30    31    2
    17    30    32   am
    18    32    34    1
    19    34    41    1
    20    41    42    1
    21    34    35    1
    22    35    36   ar
    23    36    37   ar
    24    37    38   ar
    25    38    39   ar
    26    39    40   ar
    27    14    17    1
    28    17    18   ar
    29    18    19   ar
    30    19    22    1
    31    22    23   ar
    32    23    24   ar
    33    24    25   ar
    34    25    26    1
    35    25    27   ar
    36    27    28   ar
    37    28    29    1
    38    19    20   ar
    39    20    21   ar
    40     6     1    1
    41    40    35   ar
    42    21    17   ar
    43    12     7    1
    44    28    22   ar
    45    15    16    1
    46    32    33    1
    47    42    43    1
@<TRIPOS>MOLECULE
*****
 43 47 0 0 0
SMALL
GASTEIGER

@<TRIPOS>ATOM
      1 C         141.5609  143.4286  157.0963 C.3     1  UNL1        0.0832
      2 C         141.9341  143.3979  155.6438 C.3     1  UNL1        0.0374
      3 C         141.6177  144.5702  154.7633 C.3     1  UNL1        0.0738
      4 N         140.9281  145.7733  155.3352 N.3     1  UNL1       -0.2734
      5 C         140.5550  145.8040  156.7877 C.3     1  UNL1        0.0828
      6 C         140.8714  144.6316  157.6682 C.3     1  UNL1        0.1103
      7 C         140.6117  146.9457  154.4546 C.3     1  UNL1        0.0575
      8 C         139.7784  148.0761  154.9814 C.3     1  UNL1        0.0160
      9 C         139.4620  149.2485  154.1008 C.3     1  UNL1        0.0014
     10 C         139.9789  149.2904  152.6933 C.3     1  UNL1        0.0001
     11 C         140.8123  148.1599  152.1665 C.3     1  UNL1        0.0014
     12 C         141.1287  146.9876  153.0471 C.3     1  UNL1        0.0160
     13 O         143.8658  143.5700  159.0113 O.2     1  UNL1       -0.2684
     14 C         143.0298  142.3269  158.9344 C.2     1  UNL1        0.2669
     15 N         141.8774  142.2562  157.9769 N.am    1  UNL1       -0.3006
     16 H         141.3286  141.4403  157.9264 H       1  UNL1        0.1497
     17 C         143.3462  141.1546  159.8151 C.ar    1  UNL1        0.1761
     18 C         143.1503  141.0896  161.3008 C.ar    1  UNL1        0.0673
     19 C         143.5971  139.7362  161.7685 C.ar    1  UNL1        0.1792
     20 O         144.0693  138.9648  160.5718 O.2     1  UNL1       -0.3532
     21 N         143.9142  139.8414  159.3645 N.ar    1  UNL1       -0.0723
     22 C         143.5756  139.2412  163.1843 C.ar    1  UNL1        0.0648
     23 C         142.4612  138.3524  163.6512 C.ar    1  UNL1        0.0077
     24 C         142.4397  137.8574  165.0670 C.ar    1  UNL1        0.0299
     25 C         143.5326  138.2512  166.0159 C.ar    1  UNL1        0.1424
     26 F         143.5111  137.7562  167.4317 F       1  UNL1       -0.2041
     27 C         144.6470  139.1400  165.5490 C.ar    1  UNL1        0.0593
     28 C         144.6685  139.6350  164.1332 C.ar    1  UNL1        0.1453
     29 F         145.7829  140.5239  163.6663 F       1  UNL1       -0.2040
     30 C         140.4982  144.6623  159.1208 C.2     1  UNL1        0.2252
     31 O         139.2105  144.0433  159.5776 O.2     1  UNL1       -0.2750
     32 N         141.4128  145.3120  160.1165 N.am    1  UNL1       -0.3000
     33 H         142.2579  145.7183  159.8167 H       1  UNL1        0.1498
     34 CA        141.0397  145.3427  161.5690 C.3     1  UNL1        0.1236
     35 C         141.8417  144.5600  162.5661 C.ar    1  UNL1       -0.0021
     36 C         141.1453  143.7659  163.6311 C.ar    1  UNL1       -0.0026
     37 C         141.9473  142.9832  164.6282 C.ar    1  UNL1       -0.0003
     38 C         143.4457  142.9946  164.5602 C.ar    1  UNL1       -0.0000
     39 C         144.1421  143.7887  163.4951 C.ar    1  UNL1       -0.0003
     40 C         143.3401  144.5715  162.4981 C.ar    1  UNL1       -0.0026
     41 C         139.8645  146.1561  162.0245 C.3     1  UNL1        0.1611
     42 O         138.4957  145.5435  162.0570 O.3     1  UNL1       -0.3799
     43 H         138.2112  145.3397  161.1523 H       1  UNL1        0.2105
@<TRIPOS>BOND
     1    13    14    2
     2    14    15   am
     3     1    15    1
     4     1     2    1
     5     2     3    1
     6     3     4    1
     7     4     7    1
     8     7     8    1
     9     8     9    1
    10     9    10    1
    11    10    11    1
    12    11    12    1
    13     4     5    1
    14     5     6    1
    15     6    30    1
    16    30    31    2
    17    30    32   am
    18    32    34    1
    19    34    41    1
    20    41    42    1
    21    34    35    1
    22    35    36   ar
    23    36    37   ar
    24    37    38   ar
    25    38    39   ar
    26    39    40   ar
    27    14    17    1
    28    17    18   ar
    29    18    19   ar
    30    19    22    1
    31    22    23   ar
    32    23    24   ar
    33    24    25   ar
    34    25    26    1
    35    25    27   ar
    36    27    28   ar
    37    28    29    1
    38    19    20   ar
    39    20    21   ar
    40     6     1    1
    41    40    35   ar
    42    21    17   ar
    43    12     7    1
    44    28    22   ar
    45    15    16    1
    46    32    33    1
    47    42    43    1
@<TRIPOS>MOLECULE
*****
 43 47 0 0 0
SMALL
GASTEIGER

@<TRIPOS>ATOM
      1 C         143.8888  140.3818  158.1073 C.3     1  UNL1        0.0832
      2 C         144.2641  139.6891  156.8309 C.3     1  UNL1        0.0374
      3 C         145.2107  140.3466  155.8710 C.3     1  UNL1        0.0738
      4 N         145.7821  141.6969  156.1875 N.3     1  UNL1       -0.2734
      5 C         145.4069  142.3897  157.4639 C.3     1  UNL1        0.0828
      6 C         144.4602  141.7321  158.4238 C.3     1  UNL1        0.1103
      7 C         146.7288  142.3544  155.2275 C.3     1  UNL1        0.0575
      8 C         146.2762  143.5316  154.4155 C.3     1  UNL1        0.0160
      9 C         147.2229  144.1891  153.4555 C.3     1  UNL1        0.0014
     10 C         148.6222  143.6694  153.3076 C.3     1  UNL1        0.0001
     11 C         149.0748  142.4922  154.1197 C.3     1  UNL1        0.0014
     12 C         148.1281  141.8347  155.0796 C.3     1  UNL1        0.0160
     13 O         140.9965  141.1774  158.1436 O.2     1  UNL1       -0.2684
     14 C         141.4959  140.1221  159.0854 C.2     1  UNL1        0.2669
     15 N         142.9421  139.7243  159.0673 N.am    1  UNL1       -0.3006
     16 H         143.2700  139.0317  159.6854 H       1  UNL1        0.1497
     17 C         140.5493  139.4646  160.0453 C.ar    1  UNL1        0.1761
     18 C         140.4427  139.7507  161.5140 C.ar    1  UNL1        0.0673
     19 C         139.3705  138.8685  162.0815 C.ar    1  UNL1        0.1792
     20 O         138.8144  138.0371  160.9636 O.2     1  UNL1       -0.3532
     21 N         139.5430  138.4055  159.7052 N.ar    1  UNL1       -0.0723
     22 C         138.9314  138.8253  163.5151 C.ar    1  UNL1        0.0648
     23 C         138.9490  137.5269  164.2660 C.ar    1  UNL1        0.0077
     24 C         138.5099  137.4836  165.6997 C.ar    1  UNL1        0.0299
     25 C         138.0533  138.7388  166.3824 C.ar    1  UNL1        0.1424
     26 F         137.6142  138.6955  167.8160 F       1  UNL1       -0.2041
     27 C         138.0357  140.0371  165.6315 C.ar    1  UNL1        0.0593
     28 C         138.4748  140.0803  164.1978 C.ar    1  UNL1        0.1453
     29 F         138.4572  141.3787  163.4469 F       1  UNL1       -0.2040
     30 C         144.0850  142.4249  159.7003 C.2     1  UNL1        0.2252
     31 O         143.2718  143.6846  159.6589 O.2     1  UNL1       -0.2750
     32 N         144.5229  141.8578  161.0181 N.am    1  UNL1       -0.3000
     33 H         145.0566  141.0310  161.0452 H       1  UNL1        0.1498
     34 CA        144.1476  142.5505  162.2945 C.3     1  UNL1        0.1236
     35 C         143.3796  141.8124  163.3506 C.ar    1  UNL1       -0.0021
     36 C         142.5001  142.5666  164.3033 C.ar    1  UNL1       -0.0026
     37 C         141.7321  141.8285  165.3594 C.ar    1  UNL1       -0.0003
     38 C         141.8436  140.3363  165.4629 C.ar    1  UNL1       -0.0000
     39 C         142.7232  139.5820  164.5102 C.ar    1  UNL1       -0.0003
     40 C         143.4912  140.3201  163.4541 C.ar    1  UNL1       -0.0026
     41 C         144.5404  143.9814  162.5149 C.3     1  UNL1        0.1611
     42 O         143.5525  145.0792  162.2528 O.3     1  UNL1       -0.3799
     43 H         143.3483  145.1110  161.3051 H       1  UNL1        0.2105
@<TRIPOS>BOND
     1    13    14    2
     2    14    15   am
     3     1    15    1
     4     1     2    1
     5     2     3    1
     6     3     4    1
     7     4     7    1
     8     7     8    1
     9     8     9    1
    10     9    10    1
    11    10    11    1
    12    11    12    1
    13     4     5    1
    14     5     6    1
    15     6    30    1
    16    30    31    2
    17    30    32   am
    18    32    34    1
    19    34    41    1
    20    41    42    1
    21    34    35    1
    22    35    36   ar
    23    36    37   ar
    24    37    38   ar
    25    38    39   ar
    26    39    40   ar
    27    14    17    1
    28    17    18   ar
    29    18    19   ar
    30    19    22    1
    31    22    23   ar
    32    23    24   ar
    33    24    25   ar
    34    25    26    1
    35    25    27   ar
    36    27    28   ar
    37    28    29    1
    38    19    20   ar
    39    20    21   ar
    40     6     1    1
    41    40    35   ar
    42    21    17   ar
    43    12     7    1
    44    28    22   ar
    45    15    16    1
    46    32    33    1
    47    42    43    1
@<TRIPOS>MOLECULE
*****
 43 47 0 0 0
SMALL
GASTEIGER

@<TRIPOS>ATOM
      1 C         142.1030  139.8134  160.1264 C.3     1  UNL1        0.0832
      2 C         142.4654  138.5691  159.3713 C.3     1  UNL1        0.0374
      3 C         142.9189  138.6629  157.9446 C.3     1  UNL1        0.0738
      4 N         143.0099  140.0011  157.2730 N.3     1  UNL1       -0.2734
      5 C         142.6475  141.2454  158.0281 C.3     1  UNL1        0.0828
      6 C         142.1940  141.1516  159.4548 C.3     1  UNL1        0.1103
      7 C         143.4634  140.0948  155.8462 C.3     1  UNL1        0.0575
      8 C         142.7273  140.9767  154.8817 C.3     1  UNL1        0.0160
      9 C         143.1808  141.0705  153.4549 C.3     1  UNL1        0.0014
     10 C         144.3705  140.2823  152.9927 C.3     1  UNL1        0.0001
     11 C         145.1066  139.4004  153.9574 C.3     1  UNL1        0.0014
     12 C         144.6531  139.3067  155.3840 C.3     1  UNL1        0.0160
     13 O         139.1824  139.9968  160.7871 O.2     1  UNL1       -0.2684
     14 C         140.1892  139.8113  161.8835 C.2     1  UNL1        0.2669
     15 N         141.6495  139.7197  161.5532 N.am    1  UNL1       -0.3006
     16 H         142.3103  139.5980  162.2727 H       1  UNL1        0.1497
     17 C         139.7357  139.7176  163.3102 C.ar    1  UNL1        0.1761
     18 C         140.2376  140.5516  164.4515 C.ar    1  UNL1        0.0673
     19 C         139.5127  140.1228  165.6928 C.ar    1  UNL1        0.1792
     20 O         138.5628  139.0238  165.3186 O.2     1  UNL1       -0.3532
     21 N         138.7007  138.7734  163.8461 N.ar    1  UNL1       -0.0723
     22 C         139.7041  140.6929  167.0670 C.ar    1  UNL1        0.0648
     23 C         139.2055  139.9427  168.2664 C.ar    1  UNL1        0.0077
     24 C         139.3969  140.5127  169.6405 C.ar    1  UNL1        0.0299
     25 C         140.0869  141.8331  169.8153 C.ar    1  UNL1        0.1424
     26 F         140.2782  142.4032  171.1894 F       1  UNL1       -0.2041
     27 C         140.5854  142.5833  168.6159 C.ar    1  UNL1        0.0593
     28 C         140.3940  142.0132  167.2418 C.ar    1  UNL1        0.1453
     29 F         140.8926  142.7635  166.0424 F       1  UNL1       -0.2040
     30 C         141.8316  142.3960  160.2099 C.2     1  UNL1        0.2252
     31 O         142.8852  143.1458  160.9699 O.2     1  UNL1       -0.2750
     32 N         140.4154  142.8905  160.2051 N.am    1  UNL1       -0.3000
     33 H         139.7239  142.3984  159.7063 H       1  UNL1        0.1498
     34 CA        140.0530  144.1348  160.9602 C.3     1  UNL1        0.1236
     35 C         139.3174  144.0337  162.2635 C.ar    1  UNL1       -0.0021
     36 C         138.2093  143.0355  162.4239 C.ar    1  UNL1       -0.0026
     37 C         137.4737  142.9344  163.7272 C.ar    1  UNL1       -0.0003
     38 C         137.8462  143.8315  164.8702 C.ar    1  UNL1       -0.0000
     39 C         138.9544  144.8297  164.7099 C.ar    1  UNL1       -0.0003
     40 C         139.6899  144.9309  163.4066 C.ar    1  UNL1       -0.0026
     41 C         140.4260  145.4803  160.4120 C.3     1  UNL1        0.1611
     42 O         141.7706  145.6860  159.7797 O.3     1  UNL1       -0.3799
     43 H         142.4626  145.5872  160.4522 H       1  UNL1        0.2105
@<TRIPOS>BOND
     1    13    14    2
     2    14    15   am
     3     1    15    1
     4     1     2    1
     5     2     3    1
     6     3     4    1
     7     4     7    1
     8     7     8    1
     9     8     9    1
    10     9    10    1
    11    10    11    1
    12    11    12    1
    13     4     5    1
    14     5     6    1
    15     6    30    1
    16    30    31    2
    17    30    32   am
    18    32    34    1
    19    34    41    1
    20    41    42    1
    21    34    35    1
    22    35    36   ar
    23    36    37   ar
    24    37    38   ar
    25    38    39   ar
    26    39    40   ar
    27    14    17    1
    28    17    18   ar
    29    18    19   ar
    30    19    22    1
    31    22    23   ar
    32    23    24   ar
    33    24    25   ar
    34    25    26    1
    35    25    27   ar
    36    27    28   ar
    37    28    29    1
    38    19    20   ar
    39    20    21   ar
    40     6     1    1
    41    40    35   ar
    42    21    17   ar
    43    12     7    1
    44    28    22   ar
    45    15    16    1
    46    32    33    1
    47    42    43    1
@<TRIPOS>MOLECULE
*****
 43 47 0 0 0
SMALL
GASTEIGER

@<TRIPOS>ATOM
      1 C         140.7566  144.0586  161.1517 C.3     1  UNL1        0.0832
      2 C         141.4630  145.2029  160.4873 C.3     1  UNL1        0.0374
      3 C         141.2262  145.4881  159.0338 C.3     1  UNL1        0.0738
      4 N         140.2831  144.6289  158.2449 N.3     1  UNL1       -0.2734
      5 C         139.5768  143.4846  158.9093 C.3     1  UNL1        0.0828
      6 C         139.8136  143.1994  160.3628 C.3     1  UNL1        0.1103
      7 C         140.0463  144.9142  156.7913 C.3     1  UNL1        0.0575
      8 C         139.8840  146.3294  156.3215 C.3     1  UNL1        0.0160
      9 C         139.6472  146.6146  154.8680 C.3     1  UNL1        0.0014
     10 C         139.5728  145.4846  153.8844 C.3     1  UNL1        0.0001
     11 C         139.7352  144.0693  154.3543 C.3     1  UNL1        0.0014
     12 C         139.9719  143.7842  155.8077 C.3     1  UNL1        0.0160
     13 O         143.2152  142.5669  162.0065 O.2     1  UNL1       -0.2684
     14 C         142.2227  143.0275  163.0327 C.2     1  UNL1        0.2669
     15 N         140.9934  143.7733  162.6053 N.am    1  UNL1       -0.3006
     16 H         140.3420  144.0756  163.2787 H       1  UNL1        0.1497
     17 C         142.4595  142.7422  164.4861 C.ar    1  UNL1        0.1761
     18 C         141.5097  142.0440  165.4137 C.ar    1  UNL1        0.0673
     19 C         142.1508  141.9754  166.7681 C.ar    1  UNL1        0.1792
     20 O         143.4969  142.6311  166.6774 O.2     1  UNL1       -0.3532
     21 N         143.6876  143.1051  165.2671 N.ar    1  UNL1       -0.0723
     22 C         141.5512  141.3592  167.9972 C.ar    1  UNL1        0.0648
     23 C         140.4078  142.0354  168.6937 C.ar    1  UNL1        0.0077
     24 C         139.8082  141.4192  169.9229 C.ar    1  UNL1        0.0299
     25 C         140.3521  140.1267  170.4554 C.ar    1  UNL1        0.1424
     26 F         139.7525  139.5105  171.6845 F       1  UNL1       -0.2041
     27 C         141.4955  139.4505  169.7589 C.ar    1  UNL1        0.0593
     28 C         142.0950  140.0667  168.5298 C.ar    1  UNL1        0.1453
     29 F         143.2385  139.3904  167.8332 F       1  UNL1       -0.2040
     30 C         139.1072  142.0550  161.0273 C.2     1  UNL1        0.2252
     31 O         137.6804  142.2065  161.4645 O.2     1  UNL1       -0.2750
     32 N         139.8278  140.7592  161.2547 N.am    1  UNL1       -0.3000
     33 H         140.7643  140.6599  160.9678 H       1  UNL1        0.1498
     34 CA        139.1216  139.6149  161.9192 C.3     1  UNL1        0.1236
     35 C         139.1818  139.4603  163.4100 C.ar    1  UNL1       -0.0021
     36 C         138.1067  140.0560  164.2698 C.ar    1  UNL1       -0.0026
     37 C         138.1669  139.9015  165.7606 C.ar    1  UNL1       -0.0003
     38 C         139.3022  139.1512  166.3916 C.ar    1  UNL1       -0.0000
     39 C         140.3774  138.5555  165.5318 C.ar    1  UNL1       -0.0003
     40 C         140.3172  138.7101  164.0410 C.ar    1  UNL1       -0.0026
     41 C         138.3551  138.6250  161.0930 C.3     1  UNL1        0.1611
     42 O         137.7597  137.4097  161.7397 O.3     1  UNL1       -0.3799
     43 H         138.4706  136.8347  162.0636 H       1  UNL1        0.2105
@<TRIPOS>BOND
     1    13    14    2
     2    14    15   am
     3     1    15    1
     4     1     2    1
     5     2     3    1
     6     3     4    1
     7     4     7    1
     8     7     8    1
     9     8     9    1
    10     9    10    1
    11    10    11    1
    12    11    12    1
    13     4     5    1
    14     5     6    1
    15     6    30    1
    16    30    31    2
    17    30    32   am
    18    32    34    1
    19    34    41    1
    20    41    42    1
    21    34    35    1
    22    35    36   ar
    23    36    37   ar
    24    37    38   ar
    25    38    39   ar
    26    39    40   ar
    27    14    17    1
    28    17    18   ar
    29    18    19   ar
    30    19    22    1
    31    22    23   ar
    32    23    24   ar
    33    24    25   ar
    34    25    26    1
    35    25    27   ar
    36    27    28   ar
    37    28    29    1
    38    19    20   ar
    39    20    21   ar
    40     6     1    1
    41    40    35   ar
    42    21    17   ar
    43    12     7    1
    44    28    22   ar
    45    15    16    1
    46    32    33    1
    47    42    43    1
@<TRIPOS>MOLECULE
*****
 43 47 0 0 0
SMALL
GASTEIGER

@<TRIPOS>ATOM
      1 C         140.0920  144.2995  156.5957 C.3     1  UNL1        0.0832
      2 C         139.7985  144.3917  155.1277 C.3     1  UNL1        0.0374
      3 C         139.6614  145.7344  154.4732 C.3     1  UNL1        0.0738
      4 N         139.8178  146.9848  155.2868 N.3     1  UNL1       -0.2734
      5 C         140.1112  146.8926  156.7549 C.3     1  UNL1        0.0828
      6 C         140.2483  145.5499  157.4094 C.3     1  UNL1        0.1103
      7 C         139.6807  148.3276  154.6322 C.3     1  UNL1        0.0575
      8 C         139.0176  149.4554  155.3659 C.3     1  UNL1        0.0160
      9 C         138.8805  150.7981  154.7113 C.3     1  UNL1        0.0014
     10 C         139.4065  151.0129  153.3231 C.3     1  UNL1        0.0001
     11 C         140.0697  149.8850  152.5895 C.3     1  UNL1        0.0014
     12 C         140.2068  148.5424  153.2440 C.3     1  UNL1        0.0160
     13 O         137.6418  142.7431  157.3537 O.2     1  UNL1       -0.2684
     14 C         139.0040  142.1786  157.6293 C.2     1  UNL1        0.2669
     15 N         140.2291  142.9568  157.2503 N.am    1  UNL1       -0.3006
     16 H         141.1231  142.5863  157.4312 H       1  UNL1        0.1497
     17 C         139.1410  140.8359  158.2838 C.ar    1  UNL1        0.1761
     18 C         139.5748  140.5844  159.6975 C.ar    1  UNL1        0.0673
     19 C         139.5702  139.1020  159.9270 C.ar    1  UNL1        0.1792
     20 O         139.1336  138.4375  158.6551 O.2     1  UNL1       -0.3532
     21 N         138.8683  139.5091  157.6396 N.ar    1  UNL1       -0.0723
     22 C         139.9377  138.4064  161.2041 C.ar    1  UNL1        0.0648
     23 C         141.3776  138.1271  161.5185 C.ar    1  UNL1        0.0077
     24 C         141.7451  137.4314  162.7956 C.ar    1  UNL1        0.0299
     25 C         140.6727  137.0151  163.7583 C.ar    1  UNL1        0.1424
     26 F         141.0402  136.3195  165.0354 F       1  UNL1       -0.2041
     27 C         139.2330  137.2945  163.4439 C.ar    1  UNL1        0.0593
     28 C         138.8655  137.9901  162.1668 C.ar    1  UNL1        0.1453
     29 F         137.4256  138.2694  161.8524 F       1  UNL1       -0.2040
     30 C         140.5418  145.4576  158.8775 C.2     1  UNL1        0.2252
     31 O         141.9315  145.7110  159.3820 O.2     1  UNL1       -0.2750
     32 N         139.4455  145.1120  159.8412 N.am    1  UNL1       -0.3000
     33 H         138.5334  144.9457  159.5101 H       1  UNL1        0.1498
     34 CA        139.7389  145.0197  161.3093 C.3     1  UNL1        0.1236
     35 C         139.5313  143.7237  162.0356 C.ar    1  UNL1       -0.0021
     36 C         138.1414  143.2462  162.3353 C.ar    1  UNL1       -0.0026
     37 C         137.9338  141.9503  163.0616 C.ar    1  UNL1       -0.0003
     38 C         139.1162  141.1319  163.4882 C.ar    1  UNL1       -0.0000
     39 C         140.5063  141.6094  163.1885 C.ar    1  UNL1       -0.0003
     40 C         140.7139  142.9053  162.4622 C.ar    1  UNL1       -0.0026
     41 C         140.2399  146.2233  162.0512 C.3     1  UNL1        0.1611
     42 O         141.3661  146.0846  163.0321 O.3     1  UNL1       -0.3799
     43 H         141.0771  145.5408  163.7815 H       1  UNL1        0.2105
@<TRIPOS>BOND
     1    13    14    2
     2    14    15   am
     3     1    15    1
     4     1     2    1
     5     2     3    1
     6     3     4    1
     7     4     7    1
     8     7     8    1
     9     8     9    1
    10     9    10    1
    11    10    11    1
    12    11    12    1
    13     4     5    1
    14     5     6    1
    15     6    30    1
    16    30    31    2
    17    30    32   am
    18    32    34    1
    19    34    41    1
    20    41    42    1
    21    34    35    1
    22    35    36   ar
    23    36    37   ar
    24    37    38   ar
    25    38    39   ar
    26    39    40   ar
    27    14    17    1
    28    17    18   ar
    29    18    19   ar
    30    19    22    1
    31    22    23   ar
    32    23    24   ar
    33    24    25   ar
    34    25    26    1
    35    25    27   ar
    36    27    28   ar
    37    28    29    1
    38    19    20   ar
    39    20    21   ar
    40     6     1    1
    41    40    35   ar
    42    21    17   ar
    43    12     7    1
    44    28    22   ar
    45    15    16    1
    46    32    33    1
    47    42    43    1
@<TRIPOS>MOLECULE
*****
 43 47 0 0 0
SMALL
GASTEIGER

@<TRIPOS>ATOM
      1 C         141.8378  140.6470  163.0926 C.3     1  UNL1        0.0832
      2 C         142.3243  139.7540  164.1952 C.3     1  UNL1        0.0374
      3 C         141.8861  140.0005  165.6084 C.3     1  UNL1        0.0738
      4 N         140.9614  141.1400  165.9189 N.3     1  UNL1       -0.2734
      5 C         140.4749  142.0330  164.8163 C.3     1  UNL1        0.0828
      6 C         140.9131  141.7865  163.4031 C.3     1  UNL1        0.1103
      7 C         140.5232  141.3865  167.3322 C.3     1  UNL1        0.0575
      8 C         139.8377  140.2992  168.1053 C.3     1  UNL1        0.0160
      9 C         139.3994  140.5457  169.5186 C.3     1  UNL1        0.0014
     10 C         139.6468  141.8795  170.1587 C.3     1  UNL1        0.0001
     11 C         140.3323  142.9669  169.3855 C.3     1  UNL1        0.0014
     12 C         140.7705  142.7204  167.9723 C.3     1  UNL1        0.0160
     13 O         144.1672  142.1599  161.9589 O.2     1  UNL1       -0.2684
     14 C         143.4407  141.1570  161.1125 C.2     1  UNL1        0.2669
     15 N         142.2760  140.4005  161.6793 N.am    1  UNL1       -0.3006
     16 H         141.7992  139.7423  161.1238 H       1  UNL1        0.1497
     17 C         143.8790  140.9105  159.6993 C.ar    1  UNL1        0.1761
     18 C         144.4231  141.9392  158.7528 C.ar    1  UNL1        0.0673
     19 C         144.7304  141.2566  157.4529 C.ar    1  UNL1        0.1792
     20 O         144.3762  139.8060  157.5961 O.2     1  UNL1       -0.3532
     21 N         143.8500  139.5922  158.9844 N.ar    1  UNL1       -0.0723
     22 C         145.2932  141.9098  156.2255 C.ar    1  UNL1        0.0648
     23 C         144.5145  141.8940  154.9435 C.ar    1  UNL1        0.0077
     24 C         145.0772  142.5472  153.7161 C.ar    1  UNL1        0.0299
     25 C         146.4186  143.2162  153.7706 C.ar    1  UNL1        0.1424
     26 F         146.9814  143.8694  152.5432 F       1  UNL1       -0.2041
     27 C         147.1973  143.2320  155.0525 C.ar    1  UNL1        0.0593
     28 C         146.6345  142.5788  156.2800 C.ar    1  UNL1        0.1453
     29 F         147.4132  142.5947  157.5619 F       1  UNL1       -0.2040
     30 C         140.4267  142.6796  162.3004 C.2     1  UNL1        0.2252
     31 O         139.0571  142.4795  161.7223 O.2     1  UNL1       -0.2750
     32 N         141.3098  143.7726  161.7758 N.am    1  UNL1       -0.3000
     33 H         142.2087  143.9040  162.1552 H       1  UNL1        0.1498
     34 CA        140.8234  144.6657  160.6731 C.3     1  UNL1        0.1236
     35 C         141.1471  144.3388  159.2454 C.ar    1  UNL1       -0.0021
     36 C         140.8262  142.9806  158.6957 C.ar    1  UNL1       -0.0026
     37 C         141.1499  142.6537  157.2679 C.ar    1  UNL1       -0.0003
     38 C         141.7943  143.6851  156.3899 C.ar    1  UNL1       -0.0000
     39 C         142.1152  145.0434  156.9397 C.ar    1  UNL1       -0.0003
     40 C         141.7916  145.3702  158.3674 C.ar    1  UNL1       -0.0026
     41 C         140.0134  145.8856  160.9982 C.3     1  UNL1        0.1611
     42 O         140.2905  146.6571  162.2543 O.3     1  UNL1       -0.3799
     43 H         140.0745  146.1089  163.0248 H       1  UNL1        0.2105
@<TRIPOS>BOND
     1    13    14    2
     2    14    15   am
     3     1    15    1
     4     1     2    1
     5     2     3    1
     6     3     4    1
     7     4     7    1
     8     7     8    1
     9     8     9    1
    10     9    10    1
    11    10    11    1
    12    11    12    1
    13     4     5    1
    14     5     6    1
    15     6    30    1
    16    30    31    2
    17    30    32   am
    18    32    34    1
    19    34    41    1
    20    41    42    1
    21    34    35    1
    22    35    36   ar
    23    36    37   ar
    24    37    38   ar
    25    38    39   ar
    26    39    40   ar
    27    14    17    1
    28    17    18   ar
    29    18    19   ar
    30    19    22    1
    31    22    23   ar
    32    23    24   ar
    33    24    25   ar
    34    25    26    1
    35    25    27   ar
    36    27    28   ar
    37    28    29    1
    38    19    20   ar
    39    20    21   ar
    40     6     1    1
    41    40    35   ar
    42    21    17   ar
    43    12     7    1
    44    28    22   ar
    45    15    16    1
    46    32    33    1
    47    42    43    1
@<TRIPOS>MOLECULE
*****
 43 47 0 0 0
SMALL
GASTEIGER

@<TRIPOS>ATOM
      1 C         142.5508  138.0762  157.1853 C.3     1  UNL1        0.0832
      2 C         142.7316  137.3925  155.8625 C.3     1  UNL1        0.0374
      3 C         143.0501  135.9275  155.8129 C.3     1  UNL1        0.0738
      4 N         143.1878  135.1464  157.0861 N.3     1  UNL1       -0.2734
      5 C         143.0070  135.8302  158.4088 C.3     1  UNL1        0.0828
      6 C         142.6885  137.2951  158.4584 C.3     1  UNL1        0.1103
      7 C         143.5064  133.6814  157.0364 C.3     1  UNL1        0.0575
      8 C         142.6948  132.7665  156.1680 C.3     1  UNL1        0.0160
      9 C         143.0134  131.3015  156.1183 C.3     1  UNL1        0.0014
     10 C         144.1435  130.7515  156.9371 C.3     1  UNL1        0.0001
     11 C         144.9550  131.6665  157.8056 C.3     1  UNL1        0.0014
     12 C         144.6364  133.1315  157.8552 C.3     1  UNL1        0.0160
     13 O         144.7502  140.0767  157.5860 O.2     1  UNL1       -0.2684
     14 C         143.3319  140.5415  157.4353 C.2     1  UNL1        0.2669
     15 N         142.2322  139.5412  157.2349 N.am    1  UNL1       -0.3006
     16 H         141.3014  139.8462  157.1360 H       1  UNL1        0.1497
     17 C         143.0135  142.0064  157.4850 C.ar    1  UNL1        0.1761
     18 C         142.0942  142.7409  156.5547 C.ar    1  UNL1        0.0673
     19 C         142.0709  144.1825  156.9684 C.ar    1  UNL1        0.1792
     20 O         142.9759  144.3390  158.1544 O.2     1  UNL1       -0.3532
     21 N         143.5584  142.9941  158.4736 N.ar    1  UNL1       -0.0723
     22 C         141.2813  145.2757  156.3115 C.ar    1  UNL1        0.0648
     23 C         141.5129  145.6035  154.8661 C.ar    1  UNL1        0.0077
     24 C         140.7233  146.6967  154.2092 C.ar    1  UNL1        0.0299
     25 C         139.7022  147.4620  154.9977 C.ar    1  UNL1        0.1424
     26 F         138.9127  148.5552  154.3408 F       1  UNL1       -0.2041
     27 C         139.4707  147.1342  156.4429 C.ar    1  UNL1        0.0593
     28 C         140.2603  146.0411  157.0998 C.ar    1  UNL1        0.1453
     29 F         140.0288  145.7132  158.5451 F       1  UNL1       -0.2040
     30 C         142.5076  137.9790  159.7812 C.2     1  UNL1        0.2252
     31 O         141.4191  138.9958  159.9572 O.2     1  UNL1       -0.2750
     32 N         143.4154  137.6459  160.9280 N.am    1  UNL1       -0.3000
     33 H         144.1298  136.9785  160.8125 H       1  UNL1        0.1498
     34 CA        143.2346  138.3297  162.2507 C.3     1  UNL1        0.1236
     35 C         144.0442  139.5482  162.5820 C.ar    1  UNL1       -0.0021
     36 C         144.7671  139.6347  163.8934 C.ar    1  UNL1       -0.0026
     37 C         145.5767  140.8532  164.2246 C.ar    1  UNL1       -0.0003
     38 C         145.6634  141.9853  163.2444 C.ar    1  UNL1       -0.0000
     39 C         144.9404  141.8989  161.9329 C.ar    1  UNL1       -0.0003
     40 C         144.1308  140.6804  161.6017 C.ar    1  UNL1       -0.0026
     41 C         142.2441  137.7950  163.2423 C.3     1  UNL1        0.1611
     42 O         141.2056  136.8047  162.8055 O.3     1  UNL1       -0.3799
     43 H         140.5969  137.2289  162.1807 H       1  UNL1        0.2105
@<TRIPOS>BOND
     1    13    14    2
     2    14    15   am
     3     1    15    1
     4     1     2    1
     5     2     3    1
     6     3     4    1
     7     4     7    1
     8     7     8    1
     9     8     9    1
    10     9    10    1
    11    10    11    1
    12    11    12    1
    13     4     5    1
    14     5     6    1
    15     6    30    1
    16    30    31    2
    17    30    32   am
    18    32    34    1
    19    34    41    1
    20    41    42    1
    21    34    35    1
    22    35    36   ar
    23    36    37   ar
    24    37    38   ar
    25    38    39   ar
    26    39    40   ar
    27    14    17    1
    28    17    18   ar
    29    18    19   ar
    30    19    22    1
    31    22    23   ar
    32    23    24   ar
    33    24    25   ar
    34    25    26    1
    35    25    27   ar
    36    27    28   ar
    37    28    29    1
    38    19    20   ar
    39    20    21   ar
    40     6     1    1
    41    40    35   ar
    42    21    17   ar
    43    12     7    1
    44    28    22   ar
    45    15    16    1
    46    32    33    1
    47    42    43    1
