@<TRIPOS>MOLECULE
*****
 18 19 0 0 0
SMALL
GASTEIGER

@<TRIPOS>ATOM
      1 C         138.2867  142.0864  164.4638 C.ar    1  UNL1        0.1295
      2 N         139.3265  142.1104  165.5447 N.ar    1  UNL1       -0.2298
      3 C         139.3698  140.7507  166.1766 C.ar    1  UNL1        0.0996
      4 C         138.3568  139.8863  165.4863 C.ar    1  UNL1        0.0927
      5 N         137.6874  140.7117  164.4278 N.ar    1  UNL1       -0.3386
      6 H         136.9790  140.4051  163.8166 H       1  UNL1        0.1672
      7 C         137.7307  142.2875  162.4266 C.3     1  UNL1        0.0232
      8 C         137.9120  143.2352  163.5751 C.3     1  UNL1        0.0901
      9 C         138.0934  144.1828  164.7236 C.3     1  UNL1        0.0232
     10 N         137.5373  144.3840  162.6864 N.3     1  UNL1       -0.3177
     11 H         137.3361  144.0368  161.7487 H       1  UNL1        0.1191
     12 H         138.3106  145.0478  162.6446 H       1  UNL1        0.1191
     13 C         140.2684  140.3294  167.3014 C.ar    1  UNL1        0.0192
     14 C         141.6806  139.9115  167.0168 C.ar    1  UNL1        0.0015
     15 C         142.5791  139.4902  168.1416 C.ar    1  UNL1        0.0000
     16 C         142.0655  139.4868  169.5509 C.ar    1  UNL1        0.0000
     17 C         140.6533  139.9047  169.8354 C.ar    1  UNL1        0.0000
     18 C         139.7548  140.3260  168.7107 C.ar    1  UNL1        0.0015
@<TRIPOS>BOND
     1     7     8    1
     2     8     9    1
     3     8    10    1
     4     8     1    1
     5     1     2   ar
     6     2     3   ar
     7     3    13    1
     8    13    14   ar
     9    14    15   ar
    10    15    16   ar
    11    16    17   ar
    12    17    18   ar
    13     3     4   ar
    14     4     5   ar
    15     5     1   ar
    16    18    13   ar
    17    10    11    1
    18    10    12    1
    19     5     6    1
@<TRIPOS>MOLECULE
*****
 18 19 0 0 0
SMALL
GASTEIGER

@<TRIPOS>ATOM
      1 C         142.4278  142.1997  168.6623 C.ar    1  UNL1        0.1295
      2 N         141.3299  141.1913  168.4958 N.ar    1  UNL1       -0.2298
      3 C         141.3836  140.6756  167.0882 C.ar    1  UNL1        0.0996
      4 C         142.5147  141.3654  166.3848 C.ar    1  UNL1        0.0927
      5 N         143.1600  142.3073  167.3576 N.ar    1  UNL1       -0.3386
      6 H         143.9292  142.8932  167.1723 H       1  UNL1        0.1672
      7 C         144.1532  142.4688  169.8666 C.3     1  UNL1        0.0232
      8 C         142.7388  142.9659  169.9137 C.3     1  UNL1        0.0901
      9 C         141.3244  143.4631  169.9609 C.3     1  UNL1        0.0232
     10 N         143.0498  143.7322  171.1652 N.3     1  UNL1       -0.3177
     11 H         144.0272  143.5871  171.4186 H       1  UNL1        0.1191
     12 H         142.4500  143.4046  171.9223 H       1  UNL1        0.1191
     13 C         140.4671  139.6503  166.4893 C.ar    1  UNL1        0.0192
     14 C         139.0490  139.5421  166.9661 C.ar    1  UNL1        0.0015
     15 C         138.1326  138.5167  166.3672 C.ar    1  UNL1        0.0000
     16 C         138.6342  137.5996  165.2914 C.ar    1  UNL1        0.0000
     17 C         140.0522  137.7078  164.8146 C.ar    1  UNL1        0.0000
     18 C         140.9687  138.7331  165.4135 C.ar    1  UNL1        0.0015
@<TRIPOS>BOND
     1     7     8    1
     2     8     9    1
     3     8    10    1
     4     8     1    1
     5     1     2   ar
     6     2     3   ar
     7     3    13    1
     8    13    14   ar
     9    14    15   ar
    10    15    16   ar
    11    16    17   ar
    12    17    18   ar
    13     3     4   ar
    14     4     5   ar
    15     5     1   ar
    16    18    13   ar
    17    10    11    1
    18    10    12    1
    19     5     6    1
@<TRIPOS>MOLECULE
*****
 18 19 0 0 0
SMALL
GASTEIGER

@<TRIPOS>ATOM
      1 C         139.9786  138.3249  164.8678 C.ar    1  UNL1        0.1295
      2 N         140.6023  139.3400  165.7790 N.ar    1  UNL1       -0.2298
      3 C         139.5719  139.7521  166.7883 C.ar    1  UNL1        0.0996
      4 C         138.3114  138.9916  166.5007 C.ar    1  UNL1        0.0927
      5 N         138.5626  138.1096  165.3138 N.ar    1  UNL1       -0.3386
      6 H         137.9124  137.4969  164.9002 H       1  UNL1        0.1672
      7 C         141.9507  137.6556  164.4643 C.3     1  UNL1        0.0232
      8 C         140.6523  137.6445  163.7132 C.3     1  UNL1        0.0901
      9 C         139.3540  137.6333  162.9621 C.3     1  UNL1        0.0232
     10 N         141.3261  136.9641  162.5586 N.3     1  UNL1       -0.3177
     11 H         142.3112  136.8170  162.7785 H       1  UNL1        0.1191
     12 H         141.2471  137.5485  161.7264 H       1  UNL1        0.1191
     13 C         139.7678  140.7495  167.8914 C.ar    1  UNL1        0.0192
     14 C         139.3405  140.4148  169.2897 C.ar    1  UNL1        0.0015
     15 C         139.5364  141.4123  170.3928 C.ar    1  UNL1        0.0000
     16 C         140.1596  142.7444  170.0975 C.ar    1  UNL1        0.0000
     17 C         140.5868  143.0790  168.6991 C.ar    1  UNL1        0.0000
     18 C         140.3909  142.0816  167.5961 C.ar    1  UNL1        0.0015
@<TRIPOS>BOND
     1     7     8    1
     2     8     9    1
     3     8    10    1
     4     8     1    1
     5     1     2   ar
     6     2     3   ar
     7     3    13    1
     8    13    14   ar
     9    14    15   ar
    10    15    16   ar
    11    16    17   ar
    12    17    18   ar
    13     3     4   ar
    14     4     5   ar
    15     5     1   ar
    16    18    13   ar
    17    10    11    1
    18    10    12    1
    19     5     6    1
@<TRIPOS>MOLECULE
*****
 18 19 0 0 0
SMALL
GASTEIGER

@<TRIPOS>ATOM
      1 C         140.8216  140.2678  168.4922 C.ar    1  UNL1        0.1295
      2 N         142.2193  140.4221  167.9699 N.ar    1  UNL1       -0.2298
      3 C         142.1338  140.7855  166.5171 C.ar    1  UNL1        0.0996
      4 C         140.6834  140.8557  166.1414 C.ar    1  UNL1        0.0927
      5 N         139.8724  140.5358  167.3620 N.ar    1  UNL1       -0.3386
      6 H         138.8896  140.5067  167.4125 H       1  UNL1        0.1672
      7 C         141.8147  139.3543  170.1290 C.3     1  UNL1        0.0232
      8 C         140.4402  139.9085  169.8976 C.3     1  UNL1        0.0901
      9 C         139.0657  140.4627  169.6663 C.3     1  UNL1        0.0232
     10 N         140.0588  139.5492  171.3031 N.3     1  UNL1       -0.3177
     11 H         140.8535  139.1125  171.7700 H       1  UNL1        0.1191
     12 H         139.2741  138.8977  171.2865 H       1  UNL1        0.1191
     13 C         143.2951  141.0349  165.6009 C.ar    1  UNL1        0.0192
     14 C         143.7995  142.4321  165.3926 C.ar    1  UNL1        0.0015
     15 C         144.9607  142.6814  164.4764 C.ar    1  UNL1        0.0000
     16 C         145.6174  141.5336  163.7685 C.ar    1  UNL1        0.0000
     17 C         145.1129  140.1364  163.9767 C.ar    1  UNL1        0.0000
     18 C         143.9518  139.8871  164.8929 C.ar    1  UNL1        0.0015
@<TRIPOS>BOND
     1     7     8    1
     2     8     9    1
     3     8    10    1
     4     8     1    1
     5     1     2   ar
     6     2     3   ar
     7     3    13    1
     8    13    14   ar
     9    14    15   ar
    10    15    16   ar
    11    16    17   ar
    12    17    18   ar
    13     3     4   ar
    14     4     5   ar
    15     5     1   ar
    16    18    13   ar
    17    10    11    1
    18    10    12    1
    19     5     6    1
@<TRIPOS>MOLECULE
*****
 18 19 0 0 0
SMALL
GASTEIGER

@<TRIPOS>ATOM
      1 C         141.7615  142.4518  168.6936 C.ar    1  UNL1        0.1295
      2 N         140.4820  142.8164  168.0008 N.ar    1  UNL1       -0.2298
      3 C         140.7177  142.7396  166.5214 C.ar    1  UNL1        0.0996
      4 C         142.1429  142.3276  166.2999 C.ar    1  UNL1        0.0927
      5 N         142.7880  142.1497  167.6424 N.ar    1  UNL1       -0.3386
      6 H         143.7213  141.8817  167.8050 H       1  UNL1        0.1672
      7 C         140.5043  142.5817  170.3973 C.3     1  UNL1        0.0232
      8 C         141.9767  142.3987  170.1771 C.3     1  UNL1        0.0901
      9 C         143.4491  142.2157  169.9570 C.3     1  UNL1        0.0232
     10 N         142.1919  142.3456  171.6607 N.3     1  UNL1       -0.3177
     11 H         141.2967  142.4508  172.1381 H       1  UNL1        0.1191
     12 H         142.8175  143.1009  171.9407 H       1  UNL1        0.1191
     13 C         139.7058  143.0248  165.4514 C.ar    1  UNL1        0.0192
     14 C         138.7401  141.9577  165.0289 C.ar    1  UNL1        0.0015
     15 C         137.7283  142.2429  163.9589 C.ar    1  UNL1        0.0000
     16 C         137.6822  143.5952  163.3115 C.ar    1  UNL1        0.0000
     17 C         138.6480  144.6623  163.7341 C.ar    1  UNL1        0.0000
     18 C         139.6598  144.3771  164.8040 C.ar    1  UNL1        0.0015
@<TRIPOS>BOND
     1     7     8    1
     2     8     9    1
     3     8    10    1
     4     8     1    1
     5     1     2   ar
     6     2     3   ar
     7     3    13    1
     8    13    14   ar
     9    14    15   ar
    10    15    16   ar
    11    16    17   ar
    12    17    18   ar
    13     3     4   ar
    14     4     5   ar
    15     5     1   ar
    16    18    13   ar
    17    10    11    1
    18    10    12    1
    19     5     6    1
@<TRIPOS>MOLECULE
*****
 18 19 0 0 0
SMALL
GASTEIGER

@<TRIPOS>ATOM
      1 C         138.3648  142.1803  164.0472 C.ar    1  UNL1        0.1295
      2 N         139.7706  141.8842  164.4786 N.ar    1  UNL1       -0.2298
      3 C         139.7730  140.5525  165.1689 C.ar    1  UNL1        0.0996
      4 C         138.3686  140.0254  165.1642 C.ar    1  UNL1        0.0927
      5 N         137.4983  141.0314  164.4709 N.ar    1  UNL1       -0.3386
      6 H         136.5286  140.9517  164.3205 H       1  UNL1        0.1672
      7 C         137.8712  144.1634  164.6160 C.3     1  UNL1        0.0232
      8 C         137.9060  143.4092  163.3199 C.3     1  UNL1        0.0901
      9 C         137.9408  142.6551  162.0237 C.3     1  UNL1        0.0232
     10 N         137.4472  144.6382  162.5925 N.3     1  UNL1       -0.3177
     11 H         137.3209  145.4003  163.2586 H       1  UNL1        0.1191
     12 H         136.5617  144.4456  162.1244 H       1  UNL1        0.1191
     13 C         140.9697  139.8680  165.7601 C.ar    1  UNL1        0.0192
     14 C         141.7630  138.8986  164.9349 C.ar    1  UNL1        0.0015
     15 C         142.9596  138.2142  165.5262 C.ar    1  UNL1        0.0000
     16 C         143.3629  138.4991  166.9426 C.ar    1  UNL1        0.0000
     17 C         142.5696  139.4685  167.7677 C.ar    1  UNL1        0.0000
     18 C         141.3730  140.1529  167.1765 C.ar    1  UNL1        0.0015
@<TRIPOS>BOND
     1     7     8    1
     2     8     9    1
     3     8    10    1
     4     8     1    1
     5     1     2   ar
     6     2     3   ar
     7     3    13    1
     8    13    14   ar
     9    14    15   ar
    10    15    16   ar
    11    16    17   ar
    12    17    18   ar
    13     3     4   ar
    14     4     5   ar
    15     5     1   ar
    16    18    13   ar
    17    10    11    1
    18    10    12    1
    19     5     6    1
@<TRIPOS>MOLECULE
*****
 18 19 0 0 0
SMALL
GASTEIGER

@<TRIPOS>ATOM
      1 C         140.5973  141.7143  168.6177 C.ar    1  UNL1        0.1295
      2 N         141.8895  142.1050  167.9638 N.ar    1  UNL1       -0.2298
      3 C         142.0564  141.2680  166.7303 C.ar    1  UNL1        0.0996
      4 C         140.8675  140.3600  166.6218 C.ar    1  UNL1        0.0927
      5 N         139.9656  140.6358  167.7883 N.ar    1  UNL1       -0.3386
      6 H         139.1095  140.1877  167.9765 H       1  UNL1        0.1672
      7 C         140.8000  143.5660  169.6327 C.3     1  UNL1        0.0232
      8 C         140.0354  142.2994  169.8795 C.3     1  UNL1        0.0901
      9 C         139.2708  141.0328  170.1263 C.3     1  UNL1        0.0232
     10 N         139.4735  142.8844  171.1412 N.3     1  UNL1       -0.3177
     11 H         139.8364  143.8291  171.2690 H       1  UNL1        0.1191
     12 H         139.7460  142.3052  171.9353 H       1  UNL1        0.1191
     13 C         143.2100  141.3284  165.7733 C.ar    1  UNL1        0.0192
     14 C         143.7297  140.0696  165.1447 C.ar    1  UNL1        0.0015
     15 C         144.8831  140.1301  164.1877 C.ar    1  UNL1        0.0000
     16 C         145.5169  141.4494  163.8593 C.ar    1  UNL1        0.0000
     17 C         144.9972  142.7082  164.4880 C.ar    1  UNL1        0.0000
     18 C         143.8437  142.6477  165.4449 C.ar    1  UNL1        0.0015
@<TRIPOS>BOND
     1     7     8    1
     2     8     9    1
     3     8    10    1
     4     8     1    1
     5     1     2   ar
     6     2     3   ar
     7     3    13    1
     8    13    14   ar
     9    14    15   ar
    10    15    16   ar
    11    16    17   ar
    12    17    18   ar
    13     3     4   ar
    14     4     5   ar
    15     5     1   ar
    16    18    13   ar
    17    10    11    1
    18    10    12    1
    19     5     6    1
@<TRIPOS>MOLECULE
*****
 18 19 0 0 0
SMALL
GASTEIGER

@<TRIPOS>ATOM
      1 C         140.3258  144.4720  162.9890 C.ar    1  UNL1        0.1295
      2 N         140.2716  143.0340  163.4123 N.ar    1  UNL1       -0.2298
      3 C         139.5909  142.9691  164.7474 C.ar    1  UNL1        0.0996
      4 C         139.2244  144.3670  165.1493 C.ar    1  UNL1        0.0927
      5 N         139.6785  145.2959  164.0625 N.ar    1  UNL1       -0.3386
      6 H         139.5707  146.2744  164.0551 H       1  UNL1        0.1672
      7 C         141.9155  143.8704  161.7199 C.3     1  UNL1        0.0232
      8 C         140.9224  144.9945  161.7158 C.3     1  UNL1        0.0901
      9 C         139.9292  146.1186  161.7117 C.3     1  UNL1        0.0232
     10 N         141.5190  145.5169  160.4426 N.3     1  UNL1       -0.3177
     11 H         142.2909  144.9146  160.1566 H       1  UNL1        0.1191
     12 H         141.8648  146.4646  160.5930 H       1  UNL1        0.1191
     13 C         139.3237  141.7248  165.5413 C.ar    1  UNL1        0.0192
     14 C         140.0117  141.5124  166.8571 C.ar    1  UNL1        0.0015
     15 C         139.7445  140.2680  167.6509 C.ar    1  UNL1        0.0000
     16 C         138.7893  139.2361  167.1289 C.ar    1  UNL1        0.0000
     17 C         138.1012  139.4484  165.8131 C.ar    1  UNL1        0.0000
     18 C         138.3685  140.6928  165.0193 C.ar    1  UNL1        0.0015
@<TRIPOS>BOND
     1     7     8    1
     2     8     9    1
     3     8    10    1
     4     8     1    1
     5     1     2   ar
     6     2     3   ar
     7     3    13    1
     8    13    14   ar
     9    14    15   ar
    10    15    16   ar
    11    16    17   ar
    12    17    18   ar
    13     3     4   ar
    14     4     5   ar
    15     5     1   ar
    16    18    13   ar
    17    10    11    1
    18    10    12    1
    19     5     6    1
@<TRIPOS>MOLECULE
*****
 18 19 0 0 0
SMALL
GASTEIGER

@<TRIPOS>ATOM
      1 C         142.2386  140.4212  168.4899 C.ar    1  UNL1        0.1295
      2 N         141.2105  141.4600  168.1525 N.ar    1  UNL1       -0.2298
      3 C         140.8481  141.3008  166.7057 C.ar    1  UNL1        0.0996
      4 C         141.6522  140.1636  166.1488 C.ar    1  UNL1        0.0927
      5 N         142.5116  139.6199  167.2515 N.ar    1  UNL1       -0.3386
      6 H         143.1438  138.8691  167.1757 H       1  UNL1        0.1672
      7 C         143.3623  141.6396  169.8138 C.3     1  UNL1        0.0232
      8 C         142.8809  140.2191  169.8302 C.3     1  UNL1        0.0901
      9 C         142.3996  138.7985  169.8467 C.3     1  UNL1        0.0232
     10 N         143.5232  140.0169  171.1706 N.3     1  UNL1       -0.3177
     11 H         143.9774  140.8818  171.4638 H       1  UNL1        0.1191
     12 H         144.2181  139.2730  171.1059 H       1  UNL1        0.1191
     13 C         139.8558  142.1329  165.9486 C.ar    1  UNL1        0.0192
     14 C         139.9294  143.6297  166.0112 C.ar    1  UNL1        0.0015
     15 C         138.9371  144.4617  165.2541 C.ar    1  UNL1        0.0000
     16 C         137.8712  143.7968  164.4345 C.ar    1  UNL1        0.0000
     17 C         137.7976  142.2999  164.3719 C.ar    1  UNL1        0.0000
     18 C         138.7899  141.4680  165.1290 C.ar    1  UNL1        0.0015
@<TRIPOS>BOND
     1     7     8    1
     2     8     9    1
     3     8    10    1
     4     8     1    1
     5     1     2   ar
     6     2     3   ar
     7     3    13    1
     8    13    14   ar
     9    14    15   ar
    10    15    16   ar
    11    16    17   ar
    12    17    18   ar
    13     3     4   ar
    14     4     5   ar
    15     5     1   ar
    16    18    13   ar
    17    10    11    1
    18    10    12    1
    19     5     6    1
