@<TRIPOS>MOLECULE
*****
 31 34 0 0 0
SMALL
GASTEIGER

@<TRIPOS>ATOM
      1 C         139.3795  137.9828  163.8560 C.3     1  UNL1        0.1063
      2 N         139.3754  138.5645  165.2386 N.3     1  UNL1       -0.2702
      3 C         138.1653  138.4140  166.1120 C.3     1  UNL1        0.0749
      4 C         138.1613  138.9957  167.4946 C.3     1  UNL1        0.0485
      5 C         139.3673  139.7280  168.0038 C.3     1  UNL1        0.1097
      6 O         138.4674  139.8460  169.1981 O.3     1  UNL1       -0.3826
      7 C         140.5774  139.8786  167.1303 C.3     1  UNL1        0.0485
      8 C         140.5815  139.2969  165.7477 C.3     1  UNL1        0.0749
      9 H         137.6236  139.4054  169.0120 H       1  UNL1        0.2107
     10 C         140.2608  140.5013  168.9277 C.ar    1  UNL1        0.0040
     11 C         141.2405  139.7778  169.8033 C.ar    1  UNL1       -0.0019
     12 C         142.1341  140.5511  170.7273 C.ar    1  UNL1        0.0021
     13 C         142.0479  142.0479  170.7756 C.ar    1  UNL1        0.0296
     14 C         141.0682  142.7713  169.9000 C.ar    1  UNL1        0.1399
     15 F         140.9819  144.2680  169.9482 F       1  UNL1       -0.2042
     16 C         140.1746  141.9980  168.9760 C.ar    1  UNL1        0.0276
     17 C         138.6153  138.6581  162.7559 C.3     1  UNL1        0.1486
     18 O         137.8633  137.8365  161.7512 O.3     1  UNL1       -0.3786
     19 H         137.9745  136.8948  161.9554 H       1  UNL1        0.2108
     20 O         139.6955  146.8617  161.6228 O.2     1  UNL1       -0.2748
     21 C         139.7077  145.3648  161.7181 C.2     1  UNL1        0.2264
     22 C         140.8608  144.5869  161.1568 C.3     1  UNL1        0.0901
     23 C         140.8730  143.0899  161.2521 C.3     1  UNL1        0.0372
     24 C         139.7320  142.3709  161.9087 C.ar    1  UNL1       -0.0085
     25 C         139.7441  140.8740  162.0040 C.ar    1  UNL1       -0.0049
     26 C         138.6032  140.1550  162.6606 C.ar    1  UNL1        0.0054
     27 C         137.4499  140.9329  163.2219 C.ar    1  UNL1       -0.0007
     28 C         137.4378  142.4299  163.1266 C.ar    1  UNL1        0.0141
     29 C         138.5788  143.1489  162.4700 C.ar    1  UNL1        0.0462
     30 N         138.5667  144.6458  162.3746 N.am    1  UNL1       -0.2842
     31 H         137.8098  145.1564  162.7430 H       1  UNL1        0.1548
@<TRIPOS>BOND
     1    20    21    2
     2    21    22    1
     3    22    23    1
     4    23    24    1
     5    24    25   ar
     6    25    26   ar
     7    26    17    1
     8    17    18    1
     9    17     1    1
    10     1     2    1
    11     2     3    1
    12     3     4    1
    13     4     5    1
    14     5     6    1
    15     5    10    1
    16    10    11   ar
    17    11    12   ar
    18    12    13   ar
    19    13    14   ar
    20    14    15    1
    21    14    16   ar
    22     5     7    1
    23     7     8    1
    24    26    27   ar
    25    27    28   ar
    26    28    29   ar
    27    29    30    1
    28    30    21   am
    29    29    24   ar
    30     8     2    1
    31    16    10   ar
    32    18    19    1
    33     6     9    1
    34    30    31    1
@<TRIPOS>MOLECULE
*****
 31 34 0 0 0
SMALL
GASTEIGER

@<TRIPOS>ATOM
      1 C         144.7198  140.3744  164.2600 C.3     1  UNL1        0.1063
      2 N         143.4856  140.3698  165.1124 N.3     1  UNL1       -0.2702
      3 C         142.3250  139.4925  164.7471 C.3     1  UNL1        0.0749
      4 C         141.0908  139.4879  165.5996 C.3     1  UNL1        0.0485
      5 C         141.0172  140.3605  166.8174 C.3     1  UNL1        0.1097
      6 O         139.6683  139.7075  166.8829 O.3     1  UNL1       -0.3826
      7 C         142.1778  141.2378  167.1828 C.3     1  UNL1        0.0485
      8 C         143.4120  141.2424  166.3303 C.3     1  UNL1        0.0749
      9 H         139.5681  139.0968  166.1360 H       1  UNL1        0.2107
     10 C         140.4751  141.0064  168.0580 C.ar    1  UNL1        0.0040
     11 C         139.6074  140.2198  168.9952 C.ar    1  UNL1       -0.0019
     12 C         139.0653  140.8657  170.2358 C.ar    1  UNL1        0.0021
     13 C         139.3910  142.2981  170.5392 C.ar    1  UNL1        0.0296
     14 C         140.2587  143.0847  169.6020 C.ar    1  UNL1        0.1399
     15 F         140.5844  144.5171  169.9054 F       1  UNL1       -0.2042
     16 C         140.8008  142.4388  168.3614 C.ar    1  UNL1        0.0276
     17 C         145.1205  141.6205  163.5272 C.3     1  UNL1        0.1486
     18 O         146.5368  141.7965  163.0658 O.3     1  UNL1       -0.3786
     19 H         147.0586  141.0192  163.3197 H       1  UNL1        0.2108
     20 O         139.0265  146.7820  161.0836 O.2     1  UNL1       -0.2748
     21 C         140.0422  145.7120  161.3548 C.2     1  UNL1        0.2264
     22 C         140.0421  144.4536  160.5385 C.3     1  UNL1        0.0901
     23 C         141.0577  143.3836  160.8098 C.3     1  UNL1        0.0372
     24 C         142.0735  143.5721  161.8973 C.ar    1  UNL1       -0.0085
     25 C         143.0891  142.5021  162.1685 C.ar    1  UNL1       -0.0049
     26 C         144.1049  142.6905  163.2560 C.ar    1  UNL1        0.0054
     27 C         144.1050  143.9489  164.0724 C.ar    1  UNL1       -0.0007
     28 C         143.0893  145.0189  163.8012 C.ar    1  UNL1        0.0141
     29 C         142.0735  144.8305  162.7136 C.ar    1  UNL1        0.0462
     30 N         141.0579  145.9004  162.4423 N.am    1  UNL1       -0.2842
     31 H         141.0580  146.7264  162.9781 H       1  UNL1        0.1548
@<TRIPOS>BOND
     1    20    21    2
     2    21    22    1
     3    22    23    1
     4    23    24    1
     5    24    25   ar
     6    25    26   ar
     7    26    17    1
     8    17    18    1
     9    17     1    1
    10     1     2    1
    11     2     3    1
    12     3     4    1
    13     4     5    1
    14     5     6    1
    15     5    10    1
    16    10    11   ar
    17    11    12   ar
    18    12    13   ar
    19    13    14   ar
    20    14    15    1
    21    14    16   ar
    22     5     7    1
    23     7     8    1
    24    26    27   ar
    25    27    28   ar
    26    28    29   ar
    27    29    30    1
    28    30    21   am
    29    29    24   ar
    30     8     2    1
    31    16    10   ar
    32    18    19    1
    33     6     9    1
    34    30    31    1
@<TRIPOS>MOLECULE
*****
 31 34 0 0 0
SMALL
GASTEIGER

@<TRIPOS>ATOM
      1 C         139.3914  137.8588  163.6889 C.3     1  UNL1        0.1063
      2 N         139.4608  138.4783  165.0533 N.3     1  UNL1       -0.2702
      3 C         138.2754  138.4086  165.9697 C.3     1  UNL1        0.0749
      4 C         138.3448  139.0281  167.3341 C.3     1  UNL1        0.0485
      5 C         139.5995  139.7172  167.7819 C.3     1  UNL1        0.1097
      6 O         138.7470  139.9102  169.0010 O.3     1  UNL1       -0.3826
      7 C         140.7850  139.7869  166.8654 C.3     1  UNL1        0.0485
      8 C         140.7156  139.1674  165.5011 C.3     1  UNL1        0.0749
      9 H         137.8781  139.5044  168.8555 H       1  UNL1        0.2107
     10 C         140.5583  140.4734  168.6532 C.ar    1  UNL1        0.0040
     11 C         140.5017  141.9714  168.7066 C.ar    1  UNL1       -0.0019
     12 C         141.4605  142.7276  169.5778 C.ar    1  UNL1        0.0021
     13 C         142.4757  141.9857  170.3957 C.ar    1  UNL1        0.0296
     14 C         142.5323  140.4878  170.3423 C.ar    1  UNL1        0.1399
     15 F         143.5476  139.7459  171.1601 F       1  UNL1       -0.2042
     16 C         141.5735  139.7316  169.4710 C.ar    1  UNL1        0.0276
     17 C         138.6744  138.5682  162.5787 C.3     1  UNL1        0.1486
     18 O         137.9748  137.7785  161.5125 O.3     1  UNL1       -0.3786
     19 H         138.0825  136.8308  161.6889 H       1  UNL1        0.2108
     20 O         139.7258  146.8096  161.7272 O.2     1  UNL1       -0.2748
     21 C         139.7432  145.3103  161.7711 C.2     1  UNL1        0.2264
     22 C         140.8990  144.5561  161.1835 C.3     1  UNL1        0.0901
     23 C         140.9164  143.0568  161.2275 C.3     1  UNL1        0.0372
     24 C         139.7780  142.3118  161.8591 C.ar    1  UNL1       -0.0085
     25 C         139.7954  140.8125  161.9031 C.ar    1  UNL1       -0.0049
     26 C         138.6570  140.0675  162.5347 C.ar    1  UNL1        0.0054
     27 C         137.5011  140.8217  163.1223 C.ar    1  UNL1       -0.0007
     28 C         137.4837  142.3210  163.0783 C.ar    1  UNL1        0.0141
     29 C         138.6222  143.0660  162.4467 C.ar    1  UNL1        0.0462
     30 N         138.6048  144.5653  162.4027 N.am    1  UNL1       -0.2842
     31 H         137.8462  145.0603  162.7884 H       1  UNL1        0.1548
@<TRIPOS>BOND
     1    20    21    2
     2    21    22    1
     3    22    23    1
     4    23    24    1
     5    24    25   ar
     6    25    26   ar
     7    26    17    1
     8    17    18    1
     9    17     1    1
    10     1     2    1
    11     2     3    1
    12     3     4    1
    13     4     5    1
    14     5     6    1
    15     5    10    1
    16    10    11   ar
    17    11    12   ar
    18    12    13   ar
    19    13    14   ar
    20    14    15    1
    21    14    16   ar
    22     5     7    1
    23     7     8    1
    24    26    27   ar
    25    27    28   ar
    26    28    29   ar
    27    29    30    1
    28    30    21   am
    29    29    24   ar
    30     8     2    1
    31    16    10   ar
    32    18    19    1
    33     6     9    1
    34    30    31    1
@<TRIPOS>MOLECULE
*****
 31 34 0 0 0
SMALL
GASTEIGER

@<TRIPOS>ATOM
      1 C         138.8997  138.7079  164.9885 C.3     1  UNL1        0.1063
      2 N         138.7203  139.8986  164.0940 N.3     1  UNL1       -0.2702
      3 C         137.7398  140.9723  164.4622 C.3     1  UNL1        0.0749
      4 C         137.5604  142.1630  163.5677 C.3     1  UNL1        0.0485
      5 C         138.3616  142.2800  162.3050 C.3     1  UNL1        0.1097
      6 O         137.5629  143.5472  162.2250 O.3     1  UNL1       -0.3826
      7 C         139.3422  141.2062  161.9368 C.3     1  UNL1        0.0485
      8 C         139.5216  140.0155  162.8313 C.3     1  UNL1        0.0749
      9 H         136.9806  143.6117  162.9981 H       1  UNL1        0.2107
     10 C         138.8854  142.8370  161.0145 C.ar    1  UNL1        0.0040
     11 C         138.4852  142.2127  159.7108 C.ar    1  UNL1       -0.0019
     12 C         139.0091  142.7697  158.4203 C.ar    1  UNL1        0.0021
     13 C         139.9331  143.9512  158.4336 C.ar    1  UNL1        0.0296
     14 C         140.3334  144.5756  159.7374 C.ar    1  UNL1        0.1399
     15 F         141.2575  145.7570  159.7508 F       1  UNL1       -0.2042
     16 C         139.8095  144.0185  161.0279 C.ar    1  UNL1        0.0276
     17 C         138.4477  138.7685  166.4175 C.3     1  UNL1        0.1486
     18 O         137.2587  137.9698  166.8626 O.3     1  UNL1       -0.3786
     19 H         136.9020  137.4737  166.1092 H       1  UNL1        0.2108
     20 O         143.4624  143.6557  170.9693 O.2     1  UNL1       -0.2748
     21 C         142.7253  142.7963  169.9854 C.2     1  UNL1        0.2264
     22 C         143.3172  142.5269  168.6338 C.3     1  UNL1        0.0901
     23 C         142.5801  141.6675  167.6499 C.3     1  UNL1        0.0372
     24 C         141.2510  141.0774  168.0176 C.ar    1  UNL1       -0.0085
     25 C         140.5139  140.2180  167.0337 C.ar    1  UNL1       -0.0049
     26 C         139.1848  139.6280  167.4014 C.ar    1  UNL1        0.0054
     27 C         138.5927  139.8973  168.7531 C.ar    1  UNL1       -0.0007
     28 C         139.3299  140.7567  169.7370 C.ar    1  UNL1        0.0141
     29 C         140.6590  141.3468  169.3692 C.ar    1  UNL1        0.0462
     30 N         141.3962  142.2062  170.3531 N.am    1  UNL1       -0.2842
     31 H         141.0076  142.3830  171.2403 H       1  UNL1        0.1548
@<TRIPOS>BOND
     1    20    21    2
     2    21    22    1
     3    22    23    1
     4    23    24    1
     5    24    25   ar
     6    25    26   ar
     7    26    17    1
     8    17    18    1
     9    17     1    1
    10     1     2    1
    11     2     3    1
    12     3     4    1
    13     4     5    1
    14     5     6    1
    15     5    10    1
    16    10    11   ar
    17    11    12   ar
    18    12    13   ar
    19    13    14   ar
    20    14    15    1
    21    14    16   ar
    22     5     7    1
    23     7     8    1
    24    26    27   ar
    25    27    28   ar
    26    28    29   ar
    27    29    30    1
    28    30    21   am
    29    29    24   ar
    30     8     2    1
    31    16    10   ar
    32    18    19    1
    33     6     9    1
    34    30    31    1
@<TRIPOS>MOLECULE
*****
 31 34 0 0 0
SMALL
GASTEIGER

@<TRIPOS>ATOM
      1 C         138.5906  139.7966  163.4256 C.3     1  UNL1        0.1063
      2 N         139.5549  139.7560  164.5739 N.3     1  UNL1       -0.2702
      3 C         140.7843  138.9006  164.4910 C.3     1  UNL1        0.0749
      4 C         141.7485  138.8600  165.6393 C.3     1  UNL1        0.0485
      5 C         141.4834  139.6747  166.8705 C.3     1  UNL1        0.1097
      6 O         142.7767  139.0237  167.2625 O.3     1  UNL1       -0.3826
      7 C         140.2539  140.5301  166.9534 C.3     1  UNL1        0.0485
      8 C         139.2897  140.5708  165.8051 C.3     1  UNL1        0.0749
      9 H         143.0806  138.4490  166.5426 H       1  UNL1        0.2107
     10 C         141.6674  140.2633  168.2379 C.ar    1  UNL1        0.0040
     11 C         140.6845  139.9515  169.3271 C.ar    1  UNL1       -0.0019
     12 C         140.8685  140.5402  170.6945 C.ar    1  UNL1        0.0021
     13 C         142.0354  141.4407  170.9725 C.ar    1  UNL1        0.0296
     14 C         143.0184  141.7525  169.8832 C.ar    1  UNL1        0.1399
     15 F         144.1853  142.6530  170.1613 F       1  UNL1       -0.2042
     16 C         142.8344  141.1638  168.5159 C.ar    1  UNL1        0.0276
     17 C         138.0414  141.1103  162.9536 C.3     1  UNL1        0.1486
     18 O         136.5942  141.4396  163.1706 O.3     1  UNL1       -0.3786
     19 H         136.1595  140.7018  163.6261 H       1  UNL1        0.2108
     20 O         142.4290  146.2297  158.0251 O.2     1  UNL1       -0.2748
     21 C         141.5310  145.2455  158.7141 C.2     1  UNL1        0.2264
     22 C         140.5304  144.4594  157.9199 C.3     1  UNL1        0.0901
     23 C         139.6324  143.4751  158.6089 C.3     1  UNL1        0.0372
     24 C         139.7349  143.2770  160.0922 C.ar    1  UNL1       -0.0085
     25 C         138.8369  142.2927  160.7813 C.ar    1  UNL1       -0.0049
     26 C         138.9394  142.0946  162.2645 C.ar    1  UNL1        0.0054
     27 C         139.9401  142.8807  163.0589 C.ar    1  UNL1       -0.0007
     28 C         140.8381  143.8649  162.3698 C.ar    1  UNL1        0.0141
     29 C         140.7355  144.0631  160.8865 C.ar    1  UNL1        0.0462
     30 N         141.6335  145.0473  160.1974 N.am    1  UNL1       -0.2842
     31 H         142.2903  145.5633  160.7187 H       1  UNL1        0.1548
@<TRIPOS>BOND
     1    20    21    2
     2    21    22    1
     3    22    23    1
     4    23    24    1
     5    24    25   ar
     6    25    26   ar
     7    26    17    1
     8    17    18    1
     9    17     1    1
    10     1     2    1
    11     2     3    1
    12     3     4    1
    13     4     5    1
    14     5     6    1
    15     5    10    1
    16    10    11   ar
    17    11    12   ar
    18    12    13   ar
    19    13    14   ar
    20    14    15    1
    21    14    16   ar
    22     5     7    1
    23     7     8    1
    24    26    27   ar
    25    27    28   ar
    26    28    29   ar
    27    29    30    1
    28    30    21   am
    29    29    24   ar
    30     8     2    1
    31    16    10   ar
    32    18    19    1
    33     6     9    1
    34    30    31    1
@<TRIPOS>MOLECULE
*****
 31 34 0 0 0
SMALL
GASTEIGER

@<TRIPOS>ATOM
      1 C         140.9173  145.9645  162.9393 C.3     1  UNL1        0.1063
      2 N         141.7057  144.8604  163.5790 N.3     1  UNL1       -0.2702
      3 C         143.1287  144.6204  163.1696 C.3     1  UNL1        0.0749
      4 C         143.9171  143.5163  163.8093 C.3     1  UNL1        0.0485
      5 C         143.2826  142.6520  164.8583 C.3     1  UNL1        0.1097
      6 O         144.6502  142.0379  164.8070 O.3     1  UNL1       -0.3826
      7 C         141.8596  142.8919  165.2677 C.3     1  UNL1        0.0485
      8 C         141.0711  143.9961  164.6280 C.3     1  UNL1        0.0749
      9 H         145.1908  142.5066  164.1521 H       1  UNL1        0.2107
     10 C         143.1230  141.5745  165.8895 C.ar    1  UNL1        0.0040
     11 C         142.7820  141.9354  167.3049 C.ar    1  UNL1       -0.0019
     12 C         142.6225  140.8579  168.3361 C.ar    1  UNL1        0.0021
     13 C         142.8039  139.4193  167.9519 C.ar    1  UNL1        0.0296
     14 C         143.1449  139.0583  166.5366 C.ar    1  UNL1        0.1399
     15 F         143.3264  137.6198  166.1524 F       1  UNL1       -0.2042
     16 C         143.3045  140.1359  165.5053 C.ar    1  UNL1        0.0276
     17 C         139.7106  145.6408  162.1090 C.3     1  UNL1        0.1486
     18 O         139.1101  146.6878  161.2185 O.3     1  UNL1       -0.3786
     19 H         139.6187  147.5100  161.2976 H       1  UNL1        0.2108
     20 O         137.2048  137.6953  161.5253 O.2     1  UNL1       -0.2748
     21 C         137.8109  139.0661  161.4650 C.2     1  UNL1        0.2264
     22 C         138.9413  139.3454  160.5195 C.3     1  UNL1        0.0901
     23 C         139.5474  140.7162  160.4592 C.3     1  UNL1        0.0372
     24 C         139.0230  141.8077  161.3444 C.ar    1  UNL1       -0.0085
     25 C         139.6290  143.1785  161.2841 C.ar    1  UNL1       -0.0049
     26 C         139.1046  144.2700  162.1693 C.ar    1  UNL1        0.0054
     27 C         137.9741  143.9907  163.1149 C.ar    1  UNL1       -0.0007
     28 C         137.3680  142.6199  163.1752 C.ar    1  UNL1        0.0141
     29 C         137.8925  141.5284  162.2899 C.ar    1  UNL1        0.0462
     30 N         137.2865  140.1576  162.3502 N.am    1  UNL1       -0.2842
     31 H         136.5445  139.9743  162.9708 H       1  UNL1        0.1548
@<TRIPOS>BOND
     1    20    21    2
     2    21    22    1
     3    22    23    1
     4    23    24    1
     5    24    25   ar
     6    25    26   ar
     7    26    17    1
     8    17    18    1
     9    17     1    1
    10     1     2    1
    11     2     3    1
    12     3     4    1
    13     4     5    1
    14     5     6    1
    15     5    10    1
    16    10    11   ar
    17    11    12   ar
    18    12    13   ar
    19    13    14   ar
    20    14    15    1
    21    14    16   ar
    22     5     7    1
    23     7     8    1
    24    26    27   ar
    25    27    28   ar
    26    28    29   ar
    27    29    30    1
    28    30    21   am
    29    29    24   ar
    30     8     2    1
    31    16    10   ar
    32    18    19    1
    33     6     9    1
    34    30    31    1
@<TRIPOS>MOLECULE
*****
 31 34 0 0 0
SMALL
GASTEIGER

@<TRIPOS>ATOM
      1 C         138.0988  139.3272  165.3145 C.3     1  UNL1        0.1063
      2 N         139.1599  138.9676  164.3172 N.3     1  UNL1       -0.2702
      3 C         139.7262  137.5788  164.2924 C.3     1  UNL1        0.0749
      4 C         140.7873  137.2192  163.2950 C.3     1  UNL1        0.0485
      5 C         141.2822  138.2483  162.3225 C.3     1  UNL1        0.1097
      6 O         142.1215  137.0755  161.9102 O.3     1  UNL1       -0.3826
      7 C         140.7160  139.6372  162.3473 C.3     1  UNL1        0.0485
      8 C         139.6548  139.9968  163.3446 C.3     1  UNL1        0.0749
      9 H         141.9058  136.3116  162.4678 H       1  UNL1        0.2107
     10 C         142.0686  138.8702  161.2067 C.ar    1  UNL1        0.0040
     11 C         142.0062  138.2837  159.8276 C.ar    1  UNL1       -0.0019
     12 C         142.7927  138.9055  158.7118 C.ar    1  UNL1        0.0021
     13 C         143.6414  140.1139  158.9753 C.ar    1  UNL1        0.0296
     14 C         143.7038  140.7004  160.3544 C.ar    1  UNL1        0.1399
     15 F         144.5525  141.9088  160.6178 F       1  UNL1       -0.2042
     16 C         142.9174  140.0786  161.4702 C.ar    1  UNL1        0.0276
     17 C         138.2437  138.9085  166.7476 C.3     1  UNL1        0.1486
     18 O         137.5859  137.6503  167.2315 O.3     1  UNL1       -0.3786
     19 H         137.1106  137.2309  166.4973 H       1  UNL1        0.2108
     20 O         143.5713  143.6825  171.0575 O.2     1  UNL1       -0.2748
     21 C         142.7686  142.8430  170.1084 C.2     1  UNL1        0.2264
     22 C         143.2804  142.5797  168.7232 C.3     1  UNL1        0.0901
     23 C         142.4778  141.7402  167.7740 C.3     1  UNL1        0.0372
     24 C         141.1634  141.1639  168.2100 C.ar    1  UNL1       -0.0085
     25 C         140.3607  140.3243  167.2608 C.ar    1  UNL1       -0.0049
     26 C         139.0463  139.7480  167.6968 C.ar    1  UNL1        0.0054
     27 C         138.5345  140.0113  169.0821 C.ar    1  UNL1       -0.0007
     28 C         139.3371  140.8508  170.0312 C.ar    1  UNL1        0.0141
     29 C         140.6516  141.4271  169.5952 C.ar    1  UNL1        0.0462
     30 N         141.4542  142.2667  170.5444 N.am    1  UNL1       -0.2842
     31 H         141.1183  142.4394  171.4535 H       1  UNL1        0.1548
@<TRIPOS>BOND
     1    20    21    2
     2    21    22    1
     3    22    23    1
     4    23    24    1
     5    24    25   ar
     6    25    26   ar
     7    26    17    1
     8    17    18    1
     9    17     1    1
    10     1     2    1
    11     2     3    1
    12     3     4    1
    13     4     5    1
    14     5     6    1
    15     5    10    1
    16    10    11   ar
    17    11    12   ar
    18    12    13   ar
    19    13    14   ar
    20    14    15    1
    21    14    16   ar
    22     5     7    1
    23     7     8    1
    24    26    27   ar
    25    27    28   ar
    26    28    29   ar
    27    29    30    1
    28    30    21   am
    29    29    24   ar
    30     8     2    1
    31    16    10   ar
    32    18    19    1
    33     6     9    1
    34    30    31    1
@<TRIPOS>MOLECULE
*****
 31 34 0 0 0
SMALL
GASTEIGER

@<TRIPOS>ATOM
      1 C         138.6268  137.4629  165.6497 C.3     1  UNL1        0.1063
      2 N         139.5855  137.5723  164.5013 N.3     1  UNL1       -0.2702
      3 C         141.0631  137.4964  164.7480 C.3     1  UNL1        0.0749
      4 C         142.0218  137.6058  163.5995 C.3     1  UNL1        0.0485
      5 C         141.5029  137.7910  162.2044 C.3     1  UNL1        0.1097
      6 O         142.9783  137.7779  161.9339 O.3     1  UNL1       -0.3826
      7 C         140.0252  137.8669  161.9577 C.3     1  UNL1        0.0485
      8 C         139.0665  137.7575  163.1061 C.3     1  UNL1        0.0749
      9 H         143.4590  137.6618  162.7684 H       1  UNL1        0.2107
     10 C         141.4963  137.9717  160.7153 C.ar    1  UNL1        0.0040
     11 C         142.7078  137.6059  159.9101 C.ar    1  UNL1       -0.0019
     12 C         142.7012  137.7865  158.4210 C.ar    1  UNL1        0.0021
     13 C         141.4832  138.3331  157.7372 C.ar    1  UNL1        0.0296
     14 C         140.2717  138.6990  158.5424 C.ar    1  UNL1        0.1399
     15 F         139.0537  139.2455  157.8586 F       1  UNL1       -0.2042
     16 C         140.2783  138.5183  160.0315 C.ar    1  UNL1        0.0276
     17 C         138.2331  138.6899  166.4176 C.3     1  UNL1        0.1486
     18 O         137.4470  138.5594  167.6883 O.3     1  UNL1       -0.3786
     19 H         137.2779  137.6215  167.8690 H       1  UNL1        0.2108
     20 O         139.4956  146.0687  162.7149 O.2     1  UNL1       -0.2748
     21 C         139.1031  144.7112  163.2180 C.2     1  UNL1        0.2264
     22 C         138.0104  143.9448  162.5334 C.3     1  UNL1        0.0901
     23 C         137.6179  142.5873  163.0365 C.3     1  UNL1        0.0372
     24 C         138.3180  141.9961  164.2240 C.ar    1  UNL1       -0.0085
     25 C         137.9255  140.6386  164.7270 C.ar    1  UNL1       -0.0049
     26 C         138.6256  140.0475  165.9146 C.ar    1  UNL1        0.0054
     27 C         139.7184  140.8139  166.5991 C.ar    1  UNL1       -0.0007
     28 C         140.1109  142.1714  166.0961 C.ar    1  UNL1        0.0141
     29 C         139.4107  142.7625  164.9085 C.ar    1  UNL1        0.0462
     30 N         139.8032  144.1201  164.4055 N.am    1  UNL1       -0.2842
     31 H         140.5204  144.6231  164.8548 H       1  UNL1        0.1548
@<TRIPOS>BOND
     1    20    21    2
     2    21    22    1
     3    22    23    1
     4    23    24    1
     5    24    25   ar
     6    25    26   ar
     7    26    17    1
     8    17    18    1
     9    17     1    1
    10     1     2    1
    11     2     3    1
    12     3     4    1
    13     4     5    1
    14     5     6    1
    15     5    10    1
    16    10    11   ar
    17    11    12   ar
    18    12    13   ar
    19    13    14   ar
    20    14    15    1
    21    14    16   ar
    22     5     7    1
    23     7     8    1
    24    26    27   ar
    25    27    28   ar
    26    28    29   ar
    27    29    30    1
    28    30    21   am
    29    29    24   ar
    30     8     2    1
    31    16    10   ar
    32    18    19    1
    33     6     9    1
    34    30    31    1
@<TRIPOS>MOLECULE
*****
 31 34 0 0 0
SMALL
GASTEIGER

@<TRIPOS>ATOM
      1 C         141.7996  137.8520  163.4828 C.3     1  UNL1        0.1063
      2 N         141.8822  138.4735  164.8454 N.3     1  UNL1       -0.2702
      3 C         143.1091  138.2779  165.6859 C.3     1  UNL1        0.0749
      4 C         143.1917  138.8994  167.0485 C.3     1  UNL1        0.0485
      5 C         142.0473  139.7165  167.5708 C.3     1  UNL1        0.1097
      6 O         142.9906  139.8168  168.7328 O.3     1  UNL1       -0.3826
      7 C         140.8203  139.9122  166.7303 C.3     1  UNL1        0.0485
      8 C         140.7377  139.2906  165.3677 C.3     1  UNL1        0.0749
      9 H         143.8010  139.3218  168.5350 H       1  UNL1        0.2107
     10 C         141.2305  140.5685  168.4966 C.ar    1  UNL1        0.0040
     11 C         139.9703  140.0241  169.1010 C.ar    1  UNL1       -0.0019
     12 C         139.1535  140.8761  170.0268 C.ar    1  UNL1        0.0021
     13 C         139.5971  142.2725  170.3482 C.ar    1  UNL1        0.0296
     14 C         140.8573  142.8169  169.7438 C.ar    1  UNL1        0.1399
     15 F         141.3008  144.2133  170.0652 F       1  UNL1       -0.2042
     16 C         141.6741  141.9649  168.8180 C.ar    1  UNL1        0.0276
     17 C         142.1709  138.6523  162.2696 C.3     1  UNL1        0.1486
     18 O         143.1330  138.0898  161.2656 O.3     1  UNL1       -0.3786
     19 H         143.4175  137.2071  161.5498 H       1  UNL1        0.2108
     20 O         139.8697  146.6691  161.8396 O.2     1  UNL1       -0.2748
     21 C         140.4604  145.3063  162.0486 C.2     1  UNL1        0.2264
     22 C         141.7033  145.1459  162.8729 C.3     1  UNL1        0.0901
     23 C         142.2940  143.7831  163.0819 C.3     1  UNL1        0.0372
     24 C         141.6418  142.5806  162.4667 C.ar    1  UNL1       -0.0085
     25 C         142.2325  141.2177  162.6758 C.ar    1  UNL1       -0.0049
     26 C         141.5803  140.0152  162.0606 C.ar    1  UNL1        0.0054
     27 C         140.3373  140.1755  161.2363 C.ar    1  UNL1       -0.0007
     28 C         139.7466  141.5383  161.0272 C.ar    1  UNL1        0.0141
     29 C         140.3989  142.7409  161.6425 C.ar    1  UNL1        0.0462
     30 N         139.8082  144.1037  161.4334 N.am    1  UNL1       -0.2842
     31 H         138.9924  144.2090  160.8925 H       1  UNL1        0.1548
@<TRIPOS>BOND
     1    20    21    2
     2    21    22    1
     3    22    23    1
     4    23    24    1
     5    24    25   ar
     6    25    26   ar
     7    26    17    1
     8    17    18    1
     9    17     1    1
    10     1     2    1
    11     2     3    1
    12     3     4    1
    13     4     5    1
    14     5     6    1
    15     5    10    1
    16    10    11   ar
    17    11    12   ar
    18    12    13   ar
    19    13    14   ar
    20    14    15    1
    21    14    16   ar
    22     5     7    1
    23     7     8    1
    24    26    27   ar
    25    27    28   ar
    26    28    29   ar
    27    29    30    1
    28    30    21   am
    29    29    24   ar
    30     8     2    1
    31    16    10   ar
    32    18    19    1
    33     6     9    1
    34    30    31    1
