@<TRIPOS>MOLECULE
*****
 28 31 0 0 0
SMALL
GASTEIGER

@<TRIPOS>ATOM
      1 C         139.2673  144.1229  162.1428 C.2     1  UNL1        0.2529
      2 O         138.1103  145.0559  162.3450 O.2     1  UNL1       -0.2698
      3 N         139.6035  143.1064  163.1934 N.am    1  UNL1       -0.2759
      4 C         138.7828  143.0229  164.4461 C.3     1  UNL1        0.0954
      5 C         139.1190  142.0064  165.4966 C.3     1  UNL1        0.0410
      6 C         140.2760  141.0733  165.2944 C.3     1  UNL1        0.0722
      7 C         141.0968  141.1568  164.0417 C.3     1  UNL1        0.0410
      8 C         140.7605  142.1734  162.9911 C.3     1  UNL1        0.0954
      9 C         140.9648  143.4075  157.1944 C.3     1  UNL1        0.1548
     10 N         140.8683  143.8775  158.6155 N.ar    1  UNL1       -0.2380
     11 N         141.8339  144.7922  159.3090 N.ar    1  UNL1       -0.1667
     12 C         141.3517  144.9955  160.7148 C.ar    1  UNL1        0.1270
     13 C         140.0881  144.2064  160.8901 C.ar    1  UNL1        0.1024
     14 C         139.7894  143.5155  159.5926 C.ar    1  UNL1        0.1408
     15 CL        138.6175  142.6197  159.3201 Cl      1  UNL1       -0.0615
     16 N         140.6122  140.0568  166.3450 N.pl3   1  UNL1       -0.3367
     17 H         141.0021  139.1909  166.0852 H       1  UNL1        0.1465
     18 C         140.3545  140.3596  167.7913 C.2     1  UNL1        0.0322
     19 C         139.0980  139.8694  168.4478 C.3     1  UNL1        0.1278
     20 C         138.8403  140.1722  169.8942 C.2     1  UNL1        0.2513
     21 O         137.5837  139.6820  170.5507 O.2     1  UNL1       -0.2726
     22 N         139.8389  140.9651  170.6840 N.am    1  UNL1       -0.1789
     23 C         141.0955  141.4553  170.0275 C.ar    1  UNL1        0.0742
     24 C         142.0941  142.2482  170.8173 C.ar    1  UNL1        0.0166
     25 C         143.3506  142.7384  170.1608 C.ar    1  UNL1        0.0013
     26 C         143.6083  142.4356  168.7145 C.ar    1  UNL1        0.0001
     27 C         142.6097  141.6427  167.9246 C.ar    1  UNL1        0.0022
     28 C         141.3532  141.1526  168.5811 C.ar    1  UNL1        0.0248
@<TRIPOS>BOND
     1     9    10    1
     2    10    11   ar
     3    11    12   ar
     4    12    13   ar
     5    13     1    1
     6     1     2    2
     7     1     3   am
     8     3     4    1
     9     4     5    1
    10     5     6    1
    11     6    16    1
    12    16    18    1
    13    18    19    1
    14    19    20    1
    15    20    21    2
    16    20    22    1
    17    22    23    2
    18    23    24   ar
    19    24    25   ar
    20    25    26   ar
    21    26    27   ar
    22    27    28   ar
    23     6     7    1
    24     7     8    1
    25    13    14   ar
    26    14    15    1
    27    14    10   ar
    28     8     3    1
    29    28    18    2
    30    28    23   ar
    31    16    17    1
@<TRIPOS>MOLECULE
*****
 28 31 0 0 0
SMALL
GASTEIGER

@<TRIPOS>ATOM
      1 C         139.5066  140.4506  169.4091 C.2     1  UNL1        0.2529
      2 O         138.6785  139.8769  170.5206 O.2     1  UNL1       -0.2698
      3 N         139.2539  140.0301  167.9916 N.am    1  UNL1       -0.2759
      4 C         138.1731  139.0360  167.6855 C.3     1  UNL1        0.0954
      5 C         137.9204  138.6155  166.2681 C.3     1  UNL1        0.0410
      6 C         138.7485  139.1891  165.1566 C.3     1  UNL1        0.0722
      7 C         139.8293  140.1833  165.4627 C.3     1  UNL1        0.0410
      8 C         140.0819  140.6037  166.8803 C.3     1  UNL1        0.0954
      9 C         144.2561  142.6488  170.1092 C.3     1  UNL1        0.1548
     10 N         142.7705  142.4551  170.0370 N.ar    1  UNL1       -0.2380
     11 N         141.7304  143.4939  170.3355 N.ar    1  UNL1       -0.1667
     12 C         140.3811  142.8695  170.1366 C.ar    1  UNL1        0.1270
     13 C         140.5873  141.4447  169.7152 C.ar    1  UNL1        0.1024
     14 C         142.0640  141.1887  169.6537 C.ar    1  UNL1        0.1408
     15 CL        142.7193  139.8935  169.2752 Cl      1  UNL1       -0.0615
     16 N         138.4958  138.7687  163.7391 N.pl3   1  UNL1       -0.3367
     17 H         138.0699  137.9011  163.5515 H       1  UNL1        0.1465
     18 C         138.8920  139.6700  162.6075 C.2     1  UNL1        0.0322
     19 C         138.0862  140.8999  162.3108 C.3     1  UNL1        0.1278
     20 C         138.4824  141.8012  161.1791 C.2     1  UNL1        0.2513
     21 O         137.6766  143.0311  160.8825 O.2     1  UNL1       -0.2726
     22 N         139.6844  141.4726  160.3441 N.am    1  UNL1       -0.1789
     23 C         140.4902  140.2427  160.6408 C.ar    1  UNL1        0.0742
     24 C         141.6922  139.9141  159.8058 C.ar    1  UNL1        0.0166
     25 C         142.4980  138.6842  160.1024 C.ar    1  UNL1        0.0013
     26 C         142.1018  137.7829  161.2341 C.ar    1  UNL1        0.0001
     27 C         140.8998  138.1115  162.0691 C.ar    1  UNL1        0.0022
     28 C         140.0941  139.3413  161.7724 C.ar    1  UNL1        0.0248
@<TRIPOS>BOND
     1     9    10    1
     2    10    11   ar
     3    11    12   ar
     4    12    13   ar
     5    13     1    1
     6     1     2    2
     7     1     3   am
     8     3     4    1
     9     4     5    1
    10     5     6    1
    11     6    16    1
    12    16    18    1
    13    18    19    1
    14    19    20    1
    15    20    21    2
    16    20    22    1
    17    22    23    2
    18    23    24   ar
    19    24    25   ar
    20    25    26   ar
    21    26    27   ar
    22    27    28   ar
    23     6     7    1
    24     7     8    1
    25    13    14   ar
    26    14    15    1
    27    14    10   ar
    28     8     3    1
    29    28    18    2
    30    28    23   ar
    31    16    17    1
@<TRIPOS>MOLECULE
*****
 28 31 0 0 0
SMALL
GASTEIGER

@<TRIPOS>ATOM
      1 C         142.7233  139.1026  167.4580 C.2     1  UNL1        0.2529
      2 O         143.8770  138.1657  167.2554 O.2     1  UNL1       -0.2698
      3 N         141.6435  139.1979  166.4212 N.am    1  UNL1       -0.2759
      4 C         141.7174  138.3563  165.1818 C.3     1  UNL1        0.0954
      5 C         140.6376  138.4516  164.1450 C.3     1  UNL1        0.0410
      6 C         139.4839  139.3886  164.3476 C.3     1  UNL1        0.0722
      7 C         139.4099  140.2302  165.5871 C.3     1  UNL1        0.0410
      8 C         140.4898  140.1349  166.6239 C.3     1  UNL1        0.0954
      9 C         142.8967  143.2360  170.7391 C.3     1  UNL1        0.1548
     10 N         142.7291  141.8442  170.2056 N.ar    1  UNL1       -0.2380
     11 N         142.3421  140.6347  171.0039 N.ar    1  UNL1       -0.1667
     12 C         142.2928  139.4604  170.0718 C.ar    1  UNL1        0.1270
     13 C         142.6493  139.9443  168.6974 C.ar    1  UNL1        0.1024
     14 C         142.9189  141.4175  168.7802 C.ar    1  UNL1        0.1408
     15 CL        143.3098  142.3078  167.6380 Cl      1  UNL1       -0.0615
     16 N         138.4041  139.4838  163.3108 N.pl3   1  UNL1       -0.3367
     17 H         137.7354  138.7659  163.2291 H       1  UNL1        0.1465
     18 C         138.3431  140.6730  162.3985 C.2     1  UNL1        0.0322
     19 C         137.9773  142.0205  162.9463 C.3     1  UNL1        0.1278
     20 C         137.9163  143.2097  162.0340 C.2     1  UNL1        0.2513
     21 O         137.5505  144.5573  162.5819 O.2     1  UNL1       -0.2726
     22 N         138.2212  143.0512  160.5739 N.am    1  UNL1       -0.1789
     23 C         138.5870  141.7035  160.0261 C.ar    1  UNL1        0.0742
     24 C         138.8919  141.5451  158.5660 C.ar    1  UNL1        0.0166
     25 C         139.2577  140.1975  158.0182 C.ar    1  UNL1        0.0013
     26 C         139.3187  139.0084  158.9305 C.ar    1  UNL1        0.0001
     27 C         139.0138  139.1668  160.3906 C.ar    1  UNL1        0.0022
     28 C         138.6480  140.5144  160.9384 C.ar    1  UNL1        0.0248
@<TRIPOS>BOND
     1     9    10    1
     2    10    11   ar
     3    11    12   ar
     4    12    13   ar
     5    13     1    1
     6     1     2    2
     7     1     3   am
     8     3     4    1
     9     4     5    1
    10     5     6    1
    11     6    16    1
    12    16    18    1
    13    18    19    1
    14    19    20    1
    15    20    21    2
    16    20    22    1
    17    22    23    2
    18    23    24   ar
    19    24    25   ar
    20    25    26   ar
    21    26    27   ar
    22    27    28   ar
    23     6     7    1
    24     7     8    1
    25    13    14   ar
    26    14    15    1
    27    14    10   ar
    28     8     3    1
    29    28    18    2
    30    28    23   ar
    31    16    17    1
@<TRIPOS>MOLECULE
*****
 28 31 0 0 0
SMALL
GASTEIGER

@<TRIPOS>ATOM
      1 C         139.8799  140.0033  169.2511 C.2     1  UNL1        0.2529
      2 O         138.7690  140.1307  170.2510 O.2     1  UNL1       -0.2698
      3 N         139.5869  139.5181  167.8623 N.am    1  UNL1       -0.2759
      4 C         138.1831  139.1604  167.4734 C.3     1  UNL1        0.0954
      5 C         137.8901  138.6752  166.0846 C.3     1  UNL1        0.0410
      6 C         139.0010  138.5478  165.0847 C.3     1  UNL1        0.0722
      7 C         140.4048  138.9056  165.4736 C.3     1  UNL1        0.0410
      8 C         140.6978  139.3907  166.8625 C.3     1  UNL1        0.0954
      9 C         144.3328  142.7294  170.0385 C.3     1  UNL1        0.1548
     10 N         143.3306  141.6141  170.0019 N.ar    1  UNL1       -0.2380
     11 N         143.5576  140.2089  170.4751 N.ar    1  UNL1       -0.1667
     12 C         142.2926  139.4344  170.2515 C.ar    1  UNL1        0.1270
     13 C         141.2837  140.3610  169.6400 C.ar    1  UNL1        0.1024
     14 C         141.9253  141.7081  169.4858 C.ar    1  UNL1        0.1408
     15 CL        141.2756  142.9340  168.9156 Cl      1  UNL1       -0.0615
     16 N         138.7080  138.0627  163.6959 N.pl3   1  UNL1       -0.3367
     17 H         138.1724  137.2476  163.5620 H       1  UNL1        0.1465
     18 C         139.2311  138.8194  162.5111 C.2     1  UNL1        0.0322
     19 C         140.1684  138.1518  161.5490 C.3     1  UNL1        0.1278
     20 C         140.6915  138.9085  160.3642 C.2     1  UNL1        0.2513
     21 O         141.6288  138.2408  159.4020 O.2     1  UNL1       -0.2726
     22 N         140.2774  140.3329  160.1416 N.am    1  UNL1       -0.1789
     23 C         139.3400  141.0006  161.1037 C.ar    1  UNL1        0.0742
     24 C         138.9259  142.4250  160.8811 C.ar    1  UNL1        0.0166
     25 C         137.9886  143.0926  161.8432 C.ar    1  UNL1        0.0013
     26 C         137.4655  142.3359  163.0280 C.ar    1  UNL1        0.0001
     27 C         137.8797  140.9115  163.2506 C.ar    1  UNL1        0.0022
     28 C         138.8169  140.2439  162.2885 C.ar    1  UNL1        0.0248
@<TRIPOS>BOND
     1     9    10    1
     2    10    11   ar
     3    11    12   ar
     4    12    13   ar
     5    13     1    1
     6     1     2    2
     7     1     3   am
     8     3     4    1
     9     4     5    1
    10     5     6    1
    11     6    16    1
    12    16    18    1
    13    18    19    1
    14    19    20    1
    15    20    21    2
    16    20    22    1
    17    22    23    2
    18    23    24   ar
    19    24    25   ar
    20    25    26   ar
    21    26    27   ar
    22    27    28   ar
    23     6     7    1
    24     7     8    1
    25    13    14   ar
    26    14    15    1
    27    14    10   ar
    28     8     3    1
    29    28    18    2
    30    28    23   ar
    31    16    17    1
@<TRIPOS>MOLECULE
*****
 28 31 0 0 0
SMALL
GASTEIGER

@<TRIPOS>ATOM
      1 C         140.0400  145.1558  161.0059 C.2     1  UNL1        0.2529
      2 O         139.2730  146.4087  161.3094 O.2     1  UNL1       -0.2698
      3 N         140.4905  144.2628  162.1237 N.am    1  UNL1       -0.2759
      4 C         140.1740  144.6227  163.5451 C.3     1  UNL1        0.0954
      5 C         140.6245  143.7297  164.6630 C.3     1  UNL1        0.0410
      6 C         141.3915  142.4768  164.3595 C.3     1  UNL1        0.0722
      7 C         141.7080  142.1169  162.9381 C.3     1  UNL1        0.0410
      8 C         141.2574  143.0100  161.8202 C.3     1  UNL1        0.0954
      9 C         139.9626  142.7816  156.2902 C.3     1  UNL1        0.1548
     10 N         140.3209  143.7046  157.4169 N.ar    1  UNL1       -0.2380
     11 N         141.3662  144.7797  157.3774 N.ar    1  UNL1       -0.1667
     12 C         141.3882  145.4542  158.7171 C.ar    1  UNL1        0.1270
     13 C         140.3565  144.7959  159.5845 C.ar    1  UNL1        0.1024
     14 C         139.6969  143.7146  158.7809 C.ar    1  UNL1        0.1408
     15 CL        138.6050  142.8033  159.2576 Cl      1  UNL1       -0.0615
     16 N         141.8419  141.5838  165.4773 N.pl3   1  UNL1       -0.3367
     17 H         142.8030  141.4438  165.6387 H       1  UNL1        0.1465
     18 C         140.8282  140.9042  166.3494 C.2     1  UNL1        0.0322
     19 C         140.0144  139.7669  165.8071 C.3     1  UNL1        0.1278
     20 C         139.0006  139.0873  166.6791 C.2     1  UNL1        0.2513
     21 O         138.1868  137.9499  166.1367 O.2     1  UNL1       -0.2726
     22 N         138.8007  139.5451  168.0934 N.am    1  UNL1       -0.1789
     23 C         139.6145  140.6824  168.6358 C.ar    1  UNL1        0.0742
     24 C         139.4145  141.1402  170.0502 C.ar    1  UNL1        0.0166
     25 C         140.2284  142.2775  170.5925 C.ar    1  UNL1        0.0013
     26 C         141.2421  142.9571  169.7205 C.ar    1  UNL1        0.0001
     27 C         141.4421  142.4994  168.3061 C.ar    1  UNL1        0.0022
     28 C         140.6283  141.3620  167.7638 C.ar    1  UNL1        0.0248
@<TRIPOS>BOND
     1     9    10    1
     2    10    11   ar
     3    11    12   ar
     4    12    13   ar
     5    13     1    1
     6     1     2    2
     7     1     3   am
     8     3     4    1
     9     4     5    1
    10     5     6    1
    11     6    16    1
    12    16    18    1
    13    18    19    1
    14    19    20    1
    15    20    21    2
    16    20    22    1
    17    22    23    2
    18    23    24   ar
    19    24    25   ar
    20    25    26   ar
    21    26    27   ar
    22    27    28   ar
    23     6     7    1
    24     7     8    1
    25    13    14   ar
    26    14    15    1
    27    14    10   ar
    28     8     3    1
    29    28    18    2
    30    28    23   ar
    31    16    17    1
@<TRIPOS>MOLECULE
*****
 28 31 0 0 0
SMALL
GASTEIGER

@<TRIPOS>ATOM
      1 C         139.6741  140.0335  167.9779 C.2     1  UNL1        0.2529
      2 O         138.5629  139.3198  168.6894 O.2     1  UNL1       -0.2698
      3 N         139.5625  140.3200  166.5098 N.am    1  UNL1       -0.2759
      4 C         138.3398  139.8929  165.7531 C.3     1  UNL1        0.0954
      5 C         138.2281  140.1795  164.2850 C.3     1  UNL1        0.0410
      6 C         139.3393  140.8932  163.5735 C.3     1  UNL1        0.0722
      7 C         140.5620  141.3203  164.3302 C.3     1  UNL1        0.0410
      8 C         140.6735  141.0337  165.7984 C.3     1  UNL1        0.0954
      9 C         143.2000  142.9922  170.5653 C.3     1  UNL1        0.1548
     10 N         142.5175  141.8206  169.9239 N.ar    1  UNL1       -0.2380
     11 N         143.0392  140.4151  169.8742 N.ar    1  UNL1       -0.1667
     12 C         142.0376  139.5745  169.1392 C.ar    1  UNL1        0.1270
     13 C         140.8968  140.4606  168.7346 C.ar    1  UNL1        0.1024
     14 C         141.1934  141.8487  169.2196 C.ar    1  UNL1        0.1408
     15 CL        140.3194  143.0534  169.0330 Cl      1  UNL1       -0.0615
     16 N         139.2276  141.1798  162.1054 N.pl3   1  UNL1       -0.3367
     17 H         138.7070  140.5789  161.5248 H       1  UNL1        0.1465
     18 C         139.9093  142.3818  161.5219 C.2     1  UNL1        0.0322
     19 C         139.3065  143.7442  161.6964 C.3     1  UNL1        0.1278
     20 C         139.9882  144.9463  161.1130 C.2     1  UNL1        0.2513
     21 O         139.3854  146.3087  161.2875 O.2     1  UNL1       -0.2726
     22 N         141.2725  144.7859  160.3549 N.am    1  UNL1       -0.1789
     23 C         141.8753  143.4234  160.1803 C.ar    1  UNL1        0.0742
     24 C         143.1597  143.2631  159.4223 C.ar    1  UNL1        0.0166
     25 C         143.7624  141.9007  159.2478 C.ar    1  UNL1        0.0013
     26 C         143.0808  140.6986  159.8312 C.ar    1  UNL1        0.0001
     27 C         141.7964  140.8590  160.5893 C.ar    1  UNL1        0.0022
     28 C         141.1937  142.2214  160.7638 C.ar    1  UNL1        0.0248
@<TRIPOS>BOND
     1     9    10    1
     2    10    11   ar
     3    11    12   ar
     4    12    13   ar
     5    13     1    1
     6     1     2    2
     7     1     3   am
     8     3     4    1
     9     4     5    1
    10     5     6    1
    11     6    16    1
    12    16    18    1
    13    18    19    1
    14    19    20    1
    15    20    21    2
    16    20    22    1
    17    22    23    2
    18    23    24   ar
    19    24    25   ar
    20    25    26   ar
    21    26    27   ar
    22    27    28   ar
    23     6     7    1
    24     7     8    1
    25    13    14   ar
    26    14    15    1
    27    14    10   ar
    28     8     3    1
    29    28    18    2
    30    28    23   ar
    31    16    17    1
@<TRIPOS>MOLECULE
*****
 28 31 0 0 0
SMALL
GASTEIGER

@<TRIPOS>ATOM
      1 C         139.6650  139.8507  168.5042 C.2     1  UNL1        0.2529
      2 O         138.3289  139.9073  169.1838 O.2     1  UNL1       -0.2698
      3 N         139.7878  139.2356  167.1416 N.am    1  UNL1       -0.2759
      4 C         138.5747  138.6772  166.4586 C.3     1  UNL1        0.0954
      5 C         138.6975  138.0622  165.0961 C.3     1  UNL1        0.0410
      6 C         140.0336  138.0056  164.4164 C.3     1  UNL1        0.0722
      7 C         141.2467  138.5640  165.0994 C.3     1  UNL1        0.0410
      8 C         141.1238  139.1790  166.4621 C.3     1  UNL1        0.0954
      9 C         143.1822  143.2342  170.5195 C.3     1  UNL1        0.1548
     10 N         142.4948  141.9643  170.1135 N.ar    1  UNL1       -0.2380
     11 N         142.9951  140.5724  170.3630 N.ar    1  UNL1       -0.1667
     12 C         141.9959  139.6111  169.7905 C.ar    1  UNL1        0.1270
     13 C         140.8781  140.4091  169.1872 C.ar    1  UNL1        0.1024
     14 C         141.1865  141.8634  169.3869 C.ar    1  UNL1        0.1408
     15 CL        140.3358  143.0147  168.9386 Cl      1  UNL1       -0.0615
     16 N         140.1565  137.3906  163.0539 N.pl3   1  UNL1       -0.3367
     17 H         140.2889  136.4193  162.9623 H       1  UNL1        0.1465
     18 C         140.0776  138.2553  161.8308 C.2     1  UNL1        0.0322
     19 C         138.7410  138.6582  161.2820 C.3     1  UNL1        0.1278
     20 C         138.6622  139.5230  160.0589 C.2     1  UNL1        0.2513
     21 O         137.3255  139.9259  159.5101 O.2     1  UNL1       -0.2726
     22 N         139.9199  139.9849  159.3846 N.am    1  UNL1       -0.1789
     23 C         141.2566  139.5820  159.9334 C.ar    1  UNL1        0.0742
     24 C         142.5143  140.0439  159.2591 C.ar    1  UNL1        0.0166
     25 C         143.8509  139.6410  159.8078 C.ar    1  UNL1        0.0013
     26 C         143.9297  138.7762  161.0309 C.ar    1  UNL1        0.0001
     27 C         142.6720  138.3143  161.7053 C.ar    1  UNL1        0.0022
     28 C         141.3354  138.7172  161.1565 C.ar    1  UNL1        0.0248
@<TRIPOS>BOND
     1     9    10    1
     2    10    11   ar
     3    11    12   ar
     4    12    13   ar
     5    13     1    1
     6     1     2    2
     7     1     3   am
     8     3     4    1
     9     4     5    1
    10     5     6    1
    11     6    16    1
    12    16    18    1
    13    18    19    1
    14    19    20    1
    15    20    21    2
    16    20    22    1
    17    22    23    2
    18    23    24   ar
    19    24    25   ar
    20    25    26   ar
    21    26    27   ar
    22    27    28   ar
    23     6     7    1
    24     7     8    1
    25    13    14   ar
    26    14    15    1
    27    14    10   ar
    28     8     3    1
    29    28    18    2
    30    28    23   ar
    31    16    17    1
@<TRIPOS>MOLECULE
*****
 28 31 0 0 0
SMALL
GASTEIGER

@<TRIPOS>ATOM
      1 C         142.6660  139.7262  168.6157 C.2     1  UNL1        0.2529
      2 O         143.1078  138.4949  169.3498 O.2     1  UNL1       -0.2698
      3 N         142.7202  139.7659  167.1172 N.am    1  UNL1       -0.2759
      4 C         143.2161  138.5744  166.3528 C.3     1  UNL1        0.0954
      5 C         143.2703  138.6142  164.8543 C.3     1  UNL1        0.0410
      6 C         142.8285  139.8455  164.1202 C.3     1  UNL1        0.0722
      7 C         142.3326  141.0370  164.8847 C.3     1  UNL1        0.0410
      8 C         142.2784  140.9972  166.3832 C.3     1  UNL1        0.0954
      9 C         139.4690  143.2061  170.9714 C.3     1  UNL1        0.1548
     10 N         140.7005  142.5172  170.4630 N.ar    1  UNL1       -0.2380
     11 N         142.1133  142.9852  170.6501 N.ar    1  UNL1       -0.1667
     12 C         143.0216  141.9966  169.9809 C.ar    1  UNL1        0.1270
     13 C         142.1701  140.9177  169.3802 C.ar    1  UNL1        0.1024
     14 C         140.7356  141.2394  169.6781 C.ar    1  UNL1        0.1408
     15 CL        139.5452  140.4262  169.2639 Cl      1  UNL1       -0.0615
     16 N         142.8827  139.8852  162.6218 N.pl3   1  UNL1       -0.3367
     17 H         143.6657  139.5226  162.1477 H       1  UNL1        0.1465
     18 C         141.7440  140.4774  161.8455 C.2     1  UNL1        0.0322
     19 C         141.9368  141.7598  161.0917 C.3     1  UNL1        0.1278
     20 C         140.7980  142.3520  160.3155 C.2     1  UNL1        0.2513
     21 O         140.9909  143.6345  159.5617 O.2     1  UNL1       -0.2726
     22 N         139.4665  141.6618  160.2931 N.am    1  UNL1       -0.1789
     23 C         139.2736  140.3794  161.0469 C.ar    1  UNL1        0.0742
     24 C         137.9420  139.6892  161.0244 C.ar    1  UNL1        0.0166
     25 C         137.7492  138.4068  161.7782 C.ar    1  UNL1        0.0013
     26 C         138.8880  137.8146  162.5545 C.ar    1  UNL1        0.0001
     27 C         140.2195  138.5048  162.5769 C.ar    1  UNL1        0.0022
     28 C         140.4124  139.7872  161.8231 C.ar    1  UNL1        0.0248
@<TRIPOS>BOND
     1     9    10    1
     2    10    11   ar
     3    11    12   ar
     4    12    13   ar
     5    13     1    1
     6     1     2    2
     7     1     3   am
     8     3     4    1
     9     4     5    1
    10     5     6    1
    11     6    16    1
    12    16    18    1
    13    18    19    1
    14    19    20    1
    15    20    21    2
    16    20    22    1
    17    22    23    2
    18    23    24   ar
    19    24    25   ar
    20    25    26   ar
    21    26    27   ar
    22    27    28   ar
    23     6     7    1
    24     7     8    1
    25    13    14   ar
    26    14    15    1
    27    14    10   ar
    28     8     3    1
    29    28    18    2
    30    28    23   ar
    31    16    17    1
@<TRIPOS>MOLECULE
*****
 28 31 0 0 0
SMALL
GASTEIGER

@<TRIPOS>ATOM
      1 C         140.7788  139.2567  157.0428 C.2     1  UNL1        0.2529
      2 O         140.9932  140.3148  156.0013 O.2     1  UNL1       -0.2698
      3 N         139.9074  139.5392  158.2306 N.am    1  UNL1       -0.2759
      4 C         139.2503  140.8796  158.3769 C.3     1  UNL1        0.0954
      5 C         138.3789  141.1621  159.5647 C.3     1  UNL1        0.0410
      6 C         138.1645  140.1040  160.6062 C.3     1  UNL1        0.0722
      7 C         138.8216  138.7636  160.4599 C.3     1  UNL1        0.0410
      8 C         139.6931  138.4812  159.2720 C.3     1  UNL1        0.0954
      9 C         141.7321  134.2586  155.6321 C.3     1  UNL1        0.1548
     10 N         141.8741  135.6188  156.2480 N.ar    1  UNL1       -0.2380
     11 N         143.0200  136.0881  157.0946 N.ar    1  UNL1       -0.1667
     12 C         142.7492  137.5080  157.4954 C.ar    1  UNL1        0.1270
     13 C         141.4359  137.9163  156.8965 C.ar    1  UNL1        0.1024
     14 C         140.8951  136.7487  156.1256 C.ar    1  UNL1        0.1408
     15 CL        139.6022  136.7166  155.3657 Cl      1  UNL1       -0.0615
     16 N         137.2931  140.3865  161.7940 N.pl3   1  UNL1       -0.3367
     17 H         136.3137  140.3978  161.6944 H       1  UNL1        0.1465
     18 C         137.9139  140.6518  163.1335 C.2     1  UNL1        0.0322
     19 C         138.2073  139.5118  164.0631 C.3     1  UNL1        0.1278
     20 C         138.8281  139.7770  165.4026 C.2     1  UNL1        0.2513
     21 O         139.1216  138.6370  166.3323 O.2     1  UNL1       -0.2726
     22 N         139.1554  141.1823  165.8125 N.am    1  UNL1       -0.1789
     23 C         138.8620  142.3224  164.8828 C.ar    1  UNL1        0.0742
     24 C         139.1893  143.7277  165.2927 C.ar    1  UNL1        0.0166
     25 C         138.8958  144.8677  164.3631 C.ar    1  UNL1        0.0013
     26 C         138.2751  144.6024  163.0236 C.ar    1  UNL1        0.0001
     27 C         137.9478  143.1971  162.6137 C.ar    1  UNL1        0.0022
     28 C         138.2412  142.0571  163.5433 C.ar    1  UNL1        0.0248
@<TRIPOS>BOND
     1     9    10    1
     2    10    11   ar
     3    11    12   ar
     4    12    13   ar
     5    13     1    1
     6     1     2    2
     7     1     3   am
     8     3     4    1
     9     4     5    1
    10     5     6    1
    11     6    16    1
    12    16    18    1
    13    18    19    1
    14    19    20    1
    15    20    21    2
    16    20    22    1
    17    22    23    2
    18    23    24   ar
    19    24    25   ar
    20    25    26   ar
    21    26    27   ar
    22    27    28   ar
    23     6     7    1
    24     7     8    1
    25    13    14   ar
    26    14    15    1
    27    14    10   ar
    28     8     3    1
    29    28    18    2
    30    28    23   ar
    31    16    17    1
