@<TRIPOS>MOLECULE
*****
 21 23 0 0 0
SMALL
GASTEIGER

@<TRIPOS>ATOM
      1 C         143.2363  139.3853  166.2293 C.2     1  UNL1       -0.0246
      2 C         141.7544  139.3320  166.4556 C.2     1  UNL1       -0.0015
      3 C         141.2769  139.8749  167.7699 C.ar    1  UNL1       -0.0007
      4 C         142.4194  140.3716  168.6053 C.ar    1  UNL1       -0.0002
      5 C         142.1581  140.9561  169.9617 C.ar    1  UNL1       -0.0000
      6 C         140.7542  141.0440  170.4828 C.ar    1  UNL1       -0.0002
      7 C         139.6117  140.5472  169.6474 C.ar    1  UNL1       -0.0007
      8 C         139.8731  139.9627  168.2910 C.ar    1  UNL1        0.0212
      9 C         138.6001  139.5293  167.6264 C.3     1  UNL1        0.2320
     10 O         138.4164  138.9011  166.2767 O.3     1  UNL1       -0.4706
     11 C         139.4605  138.5512  165.2582 C.ar    1  UNL1        0.1389
     12 C         138.8483  137.9352  164.0352 C.ar    1  UNL1        0.0369
     13 C         139.7216  137.5109  162.8918 C.ar    1  UNL1        0.0031
     14 C         141.2071  137.7027  162.9714 C.ar    1  UNL1        0.0002
     15 C         141.8194  138.3186  164.1944 C.ar    1  UNL1        0.0030
     16 C         140.9461  138.7429  165.3378 C.ar    1  UNL1        0.0337
     17 C         143.8182  138.8679  164.9472 C.3     1  UNL1        0.0433
     18 C         145.0908  139.4537  164.4109 C.3     1  UNL1        0.0769
     19 C         144.3051  140.1900  162.0465 C.3     1  UNL1        0.0897
     20 N         145.0417  140.4821  163.3201 N.3     1  UNL1       -0.2700
     21 C         145.7291  141.8027  163.5029 C.3     1  UNL1        0.0897
@<TRIPOS>BOND
     1    19    20    1
     2    20    21    1
     3    20    18    1
     4    18    17    1
     5    17     1    1
     6     1     2    2
     7     2     3    1
     8     3     4   ar
     9     4     5   ar
    10     5     6   ar
    11     6     7   ar
    12     7     8   ar
    13     8     9    1
    14     9    10    1
    15    10    11    1
    16    11    12   ar
    17    12    13   ar
    18    13    14   ar
    19    14    15   ar
    20    15    16   ar
    21    16     2    1
    22     8     3   ar
    23    16    11   ar
@<TRIPOS>MOLECULE
*****
 21 23 0 0 0
SMALL
GASTEIGER

@<TRIPOS>ATOM
      1 C         141.6043  141.9849  166.8327 C.2     1  UNL1       -0.0246
      2 C         141.7837  140.8922  165.8208 C.2     1  UNL1       -0.0015
      3 C         143.0231  140.9804  164.9805 C.ar    1  UNL1       -0.0007
      4 C         143.8462  142.1811  165.3424 C.ar    1  UNL1       -0.0002
      5 C         145.1311  142.4553  164.6185 C.ar    1  UNL1       -0.0000
      6 C         145.5928  141.5289  163.5329 C.ar    1  UNL1       -0.0002
      7 C         144.7697  140.3282  163.1711 C.ar    1  UNL1       -0.0007
      8 C         143.4849  140.0540  163.8949 C.ar    1  UNL1        0.0212
      9 C         142.8212  138.8107  163.3815 C.3     1  UNL1        0.2320
     10 O         141.5319  138.1866  163.8268 O.3     1  UNL1       -0.4706
     11 C         140.5878  138.6518  164.8956 C.ar    1  UNL1        0.1389
     12 C         139.4087  137.7334  165.0229 C.ar    1  UNL1        0.0369
     13 C         138.3416  138.0192  166.0376 C.ar    1  UNL1        0.0031
     14 C         138.4536  139.2233  166.9250 C.ar    1  UNL1        0.0002
     15 C         139.6327  140.1417  166.7977 C.ar    1  UNL1        0.0030
     16 C         140.6998  139.8559  165.7831 C.ar    1  UNL1        0.0337
     17 C         140.3981  141.9908  167.7243 C.3     1  UNL1        0.0433
     18 C         140.4252  142.7501  169.0177 C.3     1  UNL1        0.0769
     19 C         140.9341  141.2155  171.0514 C.3     1  UNL1        0.0897
     20 N         141.3446  142.3186  170.1215 N.3     1  UNL1       -0.2700
     21 C         142.6745  142.9901  170.2954 C.3     1  UNL1        0.0897
@<TRIPOS>BOND
     1    19    20    1
     2    20    21    1
     3    20    18    1
     4    18    17    1
     5    17     1    1
     6     1     2    2
     7     2     3    1
     8     3     4   ar
     9     4     5   ar
    10     5     6   ar
    11     6     7   ar
    12     7     8   ar
    13     8     9    1
    14     9    10    1
    15    10    11    1
    16    11    12   ar
    17    12    13   ar
    18    13    14   ar
    19    14    15   ar
    20    15    16   ar
    21    16     2    1
    22     8     3   ar
    23    16    11   ar
@<TRIPOS>MOLECULE
*****
 21 23 0 0 0
SMALL
GASTEIGER

@<TRIPOS>ATOM
      1 C         140.9830  142.7930  165.1945 C.2     1  UNL1       -0.0246
      2 C         141.5369  141.4169  164.9718 C.2     1  UNL1       -0.0015
      3 C         142.9851  141.3528  164.5864 C.ar    1  UNL1       -0.0007
      4 C         143.5912  142.7224  164.5030 C.ar    1  UNL1       -0.0002
      5 C         145.0355  142.8820  164.1312 C.ar    1  UNL1       -0.0000
      6 C         145.8739  141.6720  163.8428 C.ar    1  UNL1       -0.0002
      7 C         145.2678  140.3024  163.9262 C.ar    1  UNL1       -0.0007
      8 C         143.8235  140.1429  164.2980 C.ar    1  UNL1        0.0212
      9 C         143.4205  138.6982  164.3237 C.3     1  UNL1        0.2320
     10 O         142.0799  138.1066  164.6441 O.3     1  UNL1       -0.4706
     11 C         140.8109  138.8138  165.0180 C.ar    1  UNL1        0.1389
     12 C         139.6931  137.8429  165.2586 C.ar    1  UNL1        0.0369
     13 C         138.3335  138.3453  165.6450 C.ar    1  UNL1        0.0031
     14 C         138.0918  139.8185  165.7908 C.ar    1  UNL1        0.0002
     15 C         139.2097  140.7893  165.5502 C.ar    1  UNL1        0.0030
     16 C         140.5692  140.2870  165.1639 C.ar    1  UNL1        0.0337
     17 C         139.5450  142.9688  165.5834 C.3     1  UNL1        0.0433
     18 C         138.7333  144.0740  164.9752 C.3     1  UNL1        0.0769
     19 C         139.3040  145.2723  162.7418 C.3     1  UNL1        0.0897
     20 N         138.6013  144.1747  163.4845 N.3     1  UNL1       -0.2700
     21 C         137.7668  143.1778  162.7364 C.3     1  UNL1        0.0897
@<TRIPOS>BOND
     1    19    20    1
     2    20    21    1
     3    20    18    1
     4    18    17    1
     5    17     1    1
     6     1     2    2
     7     2     3    1
     8     3     4   ar
     9     4     5   ar
    10     5     6   ar
    11     6     7   ar
    12     7     8   ar
    13     8     9    1
    14     9    10    1
    15    10    11    1
    16    11    12   ar
    17    12    13   ar
    18    13    14   ar
    19    14    15   ar
    20    15    16   ar
    21    16     2    1
    22     8     3   ar
    23    16    11   ar
@<TRIPOS>MOLECULE
*****
 21 23 0 0 0
SMALL
GASTEIGER

@<TRIPOS>ATOM
      1 C         140.3523  141.5296  167.5367 C.2     1  UNL1       -0.0246
      2 C         140.8246  140.6463  166.4200 C.2     1  UNL1       -0.0015
      3 C         139.9662  139.4514  166.1280 C.ar    1  UNL1       -0.0007
      4 C         138.7800  139.3916  167.0441 C.ar    1  UNL1       -0.0002
      5 C         137.7916  138.2703  166.9191 C.ar    1  UNL1       -0.0000
      6 C         137.9894  137.2088  165.8779 C.ar    1  UNL1       -0.0002
      7 C         139.1756  137.2685  164.9619 C.ar    1  UNL1       -0.0007
      8 C         140.1640  138.3898  165.0869 C.ar    1  UNL1        0.0212
      9 C         141.2690  138.2611  164.0807 C.3     1  UNL1        0.2320
     10 O         142.4491  139.1620  163.8670 O.3     1  UNL1       -0.4706
     11 C         142.8156  140.4144  164.6069 C.ar    1  UNL1        0.1389
     12 C         144.0824  141.0150  164.0737 C.ar    1  UNL1        0.0369
     13 C         144.6263  142.2763  164.6766 C.ar    1  UNL1        0.0031
     14 C         143.9033  142.9368  165.8128 C.ar    1  UNL1        0.0002
     15 C         142.6365  142.3362  166.3460 C.ar    1  UNL1        0.0030
     16 C         142.0926  141.0750  165.7431 C.ar    1  UNL1        0.0337
     17 C         141.1382  142.7515  167.9101 C.3     1  UNL1        0.0433
     18 C         141.4012  143.0619  169.3539 C.3     1  UNL1        0.0769
     19 C         141.8306  141.2678  171.1833 C.3     1  UNL1        0.0897
     20 N         142.3537  142.2125  170.1421 N.3     1  UNL1       -0.2700
     21 C         143.8290  142.3077  169.8891 C.3     1  UNL1        0.0897
@<TRIPOS>BOND
     1    19    20    1
     2    20    21    1
     3    20    18    1
     4    18    17    1
     5    17     1    1
     6     1     2    2
     7     2     3    1
     8     3     4   ar
     9     4     5   ar
    10     5     6   ar
    11     6     7   ar
    12     7     8   ar
    13     8     9    1
    14     9    10    1
    15    10    11    1
    16    11    12   ar
    17    12    13   ar
    18    13    14   ar
    19    14    15   ar
    20    15    16   ar
    21    16     2    1
    22     8     3   ar
    23    16    11   ar
@<TRIPOS>MOLECULE
*****
 21 23 0 0 0
SMALL
GASTEIGER

@<TRIPOS>ATOM
      1 C         140.8075  142.7968  166.1584 C.2     1  UNL1       -0.0246
      2 C         141.4276  141.6817  166.9471 C.2     1  UNL1       -0.0015
      3 C         141.2228  141.7426  168.4318 C.ar    1  UNL1       -0.0007
      4 C         140.4155  142.9442  168.8249 C.ar    1  UNL1       -0.0002
      5 C         140.0958  143.1931  170.2690 C.ar    1  UNL1       -0.0000
      6 C         140.5833  142.2405  171.3202 C.ar    1  UNL1       -0.0002
      7 C         141.3905  141.0390  170.9272 C.ar    1  UNL1       -0.0007
      8 C         141.7103  140.7900  169.4830 C.ar    1  UNL1        0.0212
      9 C         142.5230  139.5413  169.3090 C.3     1  UNL1        0.2320
     10 O         143.0489  138.9367  168.0410 O.3     1  UNL1       -0.4706
     11 C         142.8920  139.4316  166.6337 C.ar    1  UNL1        0.1389
     12 C         143.5773  138.5252  165.6544 C.ar    1  UNL1        0.0369
     13 C         143.5411  138.8405  164.1884 C.ar    1  UNL1        0.0031
     14 C         142.8195  140.0621  163.7016 C.ar    1  UNL1        0.0002
     15 C         142.1342  140.9685  164.6808 C.ar    1  UNL1        0.0030
     16 C         142.1704  140.6532  166.1468 C.ar    1  UNL1        0.0337
     17 C         140.9530  142.8308  164.6658 C.3     1  UNL1        0.0433
     18 C         140.1898  143.8405  163.8607 C.3     1  UNL1        0.0769
     19 C         142.3179  145.3121  163.6253 C.3     1  UNL1        0.0897
     20 N         140.9118  144.9867  163.2165 N.3     1  UNL1       -0.2700
     21 C         140.2279  145.8074  162.1638 C.3     1  UNL1        0.0897
@<TRIPOS>BOND
     1    19    20    1
     2    20    21    1
     3    20    18    1
     4    18    17    1
     5    17     1    1
     6     1     2    2
     7     2     3    1
     8     3     4   ar
     9     4     5   ar
    10     5     6   ar
    11     6     7   ar
    12     7     8   ar
    13     8     9    1
    14     9    10    1
    15    10    11    1
    16    11    12   ar
    17    12    13   ar
    18    13    14   ar
    19    14    15   ar
    20    15    16   ar
    21    16     2    1
    22     8     3   ar
    23    16    11   ar
@<TRIPOS>MOLECULE
*****
 21 23 0 0 0
SMALL
GASTEIGER

@<TRIPOS>ATOM
      1 C         142.1277  141.5342  165.1574 C.2     1  UNL1       -0.0246
      2 C         141.0336  140.7357  165.8018 C.2     1  UNL1       -0.0015
      3 C         140.4031  139.6819  164.9403 C.ar    1  UNL1       -0.0007
      4 C         141.0206  139.6495  163.5737 C.ar    1  UNL1       -0.0002
      5 C         140.5329  138.6640  162.5536 C.ar    1  UNL1       -0.0000
      6 C         139.4277  137.7107  162.9000 C.ar    1  UNL1       -0.0002
      7 C         138.8103  137.7431  164.2666 C.ar    1  UNL1       -0.0007
      8 C         139.2980  138.7286  165.2868 C.ar    1  UNL1        0.0212
      9 C         138.5504  138.5938  166.5802 C.3     1  UNL1        0.2320
     10 O         138.7232  139.3788  167.8466 O.3     1  UNL1       -0.4706
     11 C         139.6864  140.4927  168.1324 C.ar    1  UNL1        0.1389
     12 C         139.5291  141.0075  169.5325 C.ar    1  UNL1        0.0369
     13 C         140.4000  142.1262  170.0225 C.ar    1  UNL1        0.0031
     14 C         141.4282  142.7300  169.1125 C.ar    1  UNL1        0.0002
     15 C         141.5855  142.2152  167.7124 C.ar    1  UNL1        0.0030
     16 C         140.7147  141.0966  167.2224 C.ar    1  UNL1        0.0337
     17 C         142.8245  142.6134  165.9319 C.3     1  UNL1        0.0433
     18 C         144.1727  143.1016  165.4914 C.3     1  UNL1        0.0769
     19 C         144.1511  143.7587  162.9779 C.3     1  UNL1        0.0897
     20 N         144.6322  142.8659  164.0831 N.3     1  UNL1       -0.2700
     21 C         145.5728  141.7375  163.7800 C.3     1  UNL1        0.0897
@<TRIPOS>BOND
     1    19    20    1
     2    20    21    1
     3    20    18    1
     4    18    17    1
     5    17     1    1
     6     1     2    2
     7     2     3    1
     8     3     4   ar
     9     4     5   ar
    10     5     6   ar
    11     6     7   ar
    12     7     8   ar
    13     8     9    1
    14     9    10    1
    15    10    11    1
    16    11    12   ar
    17    12    13   ar
    18    13    14   ar
    19    14    15   ar
    20    15    16   ar
    21    16     2    1
    22     8     3   ar
    23    16    11   ar
@<TRIPOS>MOLECULE
*****
 21 23 0 0 0
SMALL
GASTEIGER

@<TRIPOS>ATOM
      1 C         140.1405  141.5029  167.0581 C.2     1  UNL1       -0.0246
      2 C         141.0345  141.6804  165.8668 C.2     1  UNL1       -0.0015
      3 C         140.6946  142.8286  164.9634 C.ar    1  UNL1       -0.0007
      4 C         139.4944  143.5794  165.4593 C.ar    1  UNL1       -0.0002
      5 C         138.9861  144.7678  164.6982 C.ar    1  UNL1       -0.0000
      6 C         139.6779  145.2054  163.4413 C.ar    1  UNL1       -0.0002
      7 C         140.8781  144.4546  162.9454 C.ar    1  UNL1       -0.0007
      8 C         141.3864  143.2662  163.7065 C.ar    1  UNL1        0.0212
      9 C         142.5890  142.6637  163.0425 C.3     1  UNL1        0.2320
     10 O         143.3967  141.4748  163.4714 O.3     1  UNL1       -0.4706
     11 C         143.2013  140.5947  164.6704 C.ar    1  UNL1        0.1389
     12 C         144.2367  139.5109  164.7291 C.ar    1  UNL1        0.0369
     13 C         144.2207  138.5186  165.8539 C.ar    1  UNL1        0.0031
     14 C         143.1695  138.6101  166.9199 C.ar    1  UNL1        0.0002
     15 C         142.1341  139.6939  166.8611 C.ar    1  UNL1        0.0030
     16 C         142.1500  140.6862  165.7364 C.ar    1  UNL1        0.0337
     17 C         140.3930  140.3844  168.0253 C.3     1  UNL1        0.0433
     18 C         139.8519  140.4642  169.4221 C.3     1  UNL1        0.0769
     19 C         139.8282  142.7659  170.6268 C.3     1  UNL1        0.0897
     20 N         140.4556  141.4213  170.4066 N.3     1  UNL1       -0.2700
     21 C         141.6866  141.0339  171.1711 C.3     1  UNL1        0.0897
@<TRIPOS>BOND
     1    19    20    1
     2    20    21    1
     3    20    18    1
     4    18    17    1
     5    17     1    1
     6     1     2    2
     7     2     3    1
     8     3     4   ar
     9     4     5   ar
    10     5     6   ar
    11     6     7   ar
    12     7     8   ar
    13     8     9    1
    14     9    10    1
    15    10    11    1
    16    11    12   ar
    17    12    13   ar
    18    13    14   ar
    19    14    15   ar
    20    15    16   ar
    21    16     2    1
    22     8     3   ar
    23    16    11   ar
@<TRIPOS>MOLECULE
*****
 21 23 0 0 0
SMALL
GASTEIGER

@<TRIPOS>ATOM
      1 C         142.7047  140.9691  167.1737 C.2     1  UNL1       -0.0246
      2 C         141.8250  141.5532  166.1083 C.2     1  UNL1       -0.0015
      3 C         142.4013  142.7137  165.3525 C.ar    1  UNL1       -0.0007
      4 C         143.7789  143.0544  165.8383 C.ar    1  UNL1       -0.0002
      5 C         144.5355  144.1886  165.2129 C.ar    1  UNL1       -0.0000
      6 C         143.9144  144.9820  164.1017 C.ar    1  UNL1       -0.0002
      7 C         142.5368  144.6413  163.6159 C.ar    1  UNL1       -0.0007
      8 C         141.7802  143.5072  164.2413 C.ar    1  UNL1        0.0212
      9 C         140.4296  143.3361  163.6116 C.3     1  UNL1        0.2320
     10 O         139.3664  142.3294  163.9374 O.3     1  UNL1       -0.4706
     11 C         139.3913  141.2450  164.9736 C.ar    1  UNL1        0.1389
     12 C         138.1161  140.4552  164.9709 C.ar    1  UNL1        0.0369
     13 C         137.9351  139.3199  165.9345 C.ar    1  UNL1        0.0031
     14 C         139.0293  138.9744  166.9006 C.ar    1  UNL1        0.0002
     15 C         140.3045  139.7643  166.9032 C.ar    1  UNL1        0.0030
     16 C         140.4855  140.8996  165.9398 C.ar    1  UNL1        0.0337
     17 C         142.2238  139.8052  167.9886 C.3     1  UNL1        0.0433
     18 C         142.4425  139.7872  169.4725 C.3     1  UNL1        0.0769
     19 C         140.1522  140.0360  170.6737 C.3     1  UNL1        0.0897
     20 N         141.5260  140.5590  170.3750 N.3     1  UNL1       -0.2700
     21 C         141.9833  141.8537  170.9787 C.3     1  UNL1        0.0897
@<TRIPOS>BOND
     1    19    20    1
     2    20    21    1
     3    20    18    1
     4    18    17    1
     5    17     1    1
     6     1     2    2
     7     2     3    1
     8     3     4   ar
     9     4     5   ar
    10     5     6   ar
    11     6     7   ar
    12     7     8   ar
    13     8     9    1
    14     9    10    1
    15    10    11    1
    16    11    12   ar
    17    12    13   ar
    18    13    14   ar
    19    14    15   ar
    20    15    16   ar
    21    16     2    1
    22     8     3   ar
    23    16    11   ar
@<TRIPOS>MOLECULE
*****
 21 23 0 0 0
SMALL
GASTEIGER

@<TRIPOS>ATOM
      1 C         140.7222  139.8563  164.2173 C.2     1  UNL1       -0.0246
      2 C         141.2645  141.2548  164.2302 C.2     1  UNL1       -0.0015
      3 C         142.7568  141.3749  164.1369 C.ar    1  UNL1       -0.0007
      4 C         143.4106  140.0279  164.0477 C.ar    1  UNL1       -0.0002
      5 C         144.9035  139.9241  163.9466 C.ar    1  UNL1       -0.0000
      6 C         145.7427  141.1674  163.9348 C.ar    1  UNL1       -0.0002
      7 C         145.0889  142.5144  164.0240 C.ar    1  UNL1       -0.0007
      8 C         143.5960  142.6182  164.1251 C.ar    1  UNL1        0.0212
      9 C         143.1501  144.0483  164.2036 C.3     1  UNL1        0.2320
     10 O         141.7550  144.5883  164.3134 O.3     1  UNL1       -0.4706
     11 C         140.4611  143.8316  164.3717 C.ar    1  UNL1        0.1389
     12 C         139.2879  144.7598  164.4804 C.ar    1  UNL1        0.0369
     13 C         137.8963  144.2044  164.5521 C.ar    1  UNL1        0.0031
     14 C         137.6780  142.7209  164.5151 C.ar    1  UNL1        0.0002
     15 C         138.8513  141.7927  164.4064 C.ar    1  UNL1        0.0030
     16 C         140.2428  142.3480  164.3347 C.ar    1  UNL1        0.0337
     17 C         139.2428  139.6247  164.3059 C.3     1  UNL1        0.0433
     18 C         138.5791  138.6515  163.3772 C.3     1  UNL1        0.0769
     19 C         139.4331  138.1510  160.9752 C.3     1  UNL1        0.0897
     20 N         138.5448  138.9258  161.9030 N.3     1  UNL1       -0.2700
     21 C         137.6224  139.9747  161.3565 C.3     1  UNL1        0.0897
@<TRIPOS>BOND
     1    19    20    1
     2    20    21    1
     3    20    18    1
     4    18    17    1
     5    17     1    1
     6     1     2    2
     7     2     3    1
     8     3     4   ar
     9     4     5   ar
    10     5     6   ar
    11     6     7   ar
    12     7     8   ar
    13     8     9    1
    14     9    10    1
    15    10    11    1
    16    11    12   ar
    17    12    13   ar
    18    13    14   ar
    19    14    15   ar
    20    15    16   ar
    21    16     2    1
    22     8     3   ar
    23    16    11   ar
