@<TRIPOS>MOLECULE
*****
 45 49 0 0 0
SMALL
GASTEIGER

@<TRIPOS>ATOM
      1 C         140.4091  144.2104  157.9424 C.2     1  UNL1        0.2458
      2 O         141.7198  144.6400  157.3528 O.2     1  UNL1       -0.2701
      3 N         139.1695  144.2144  157.0978 N.am    1  UNL1       -0.3009
      4 H         138.3093  143.9325  157.4848 H       1  UNL1        0.1497
      5 C         140.1961  142.9096  162.2450 C.ar    1  UNL1        0.0536
      6 C         139.6802  142.0084  161.1626 C.ar    1  UNL1        0.0048
      7 C         139.7512  142.4421  159.7284 C.ar    1  UNL1        0.0047
      8 C         140.3381  143.7769  159.3766 C.ar    1  UNL1        0.0534
      9 C         140.8541  144.6781  160.4590 C.ar    1  UNL1        0.0047
     10 C         140.7830  144.2444  161.8932 C.ar    1  UNL1        0.0048
     11 C         139.3497  140.1278  166.7037 C.ar    1  UNL1        0.0143
     12 C         139.5906  140.4051  168.1580 C.ar    1  UNL1        0.0091
     13 C         140.1951  141.7104  168.5826 C.ar    1  UNL1        0.0698
     14 C         140.5590  142.7387  167.5529 C.ar    1  UNL1        0.0326
     15 C         140.3181  142.4615  166.0985 C.ar    1  UNL1        0.1192
     16 N         140.5725  143.2773  164.8658 N.ar    1  UNL1       -0.2082
     17 C         140.1251  142.4760  163.6793 C.ar    1  UNL1        0.2296
     18 O         139.5942  141.1650  164.1787 O.2     1  UNL1       -0.4349
     19 C         139.7135  141.1561  165.6739 C.ar    1  UNL1        0.1607
     20 C         139.3610  138.0403  165.1571 C.3     1  UNL1        0.0048
     21 C         138.7451  138.8224  166.2791 C.3     1  UNL1        0.0254
     22 C         137.5246  138.2990  166.9767 C.3     1  UNL1        0.0048
     23 C         140.4360  141.9877  170.0371 C.1     1  UNL1        0.1005
     24 N         140.6768  142.2649  171.4914 N.1     1  UNL1       -0.1908
     25 C         139.2405  144.6480  155.6636 C.3     1  UNL1        0.0896
     26 C         139.4734  146.0911  155.3270 C.3     1  UNL1        0.0196
     27 C         140.3549  146.4585  154.1703 C.3     1  UNL1        0.0020
     28 C         140.5878  147.9016  153.8336 C.3     1  UNL1        0.0044
     29 C         139.9393  148.9772  154.6537 C.3     1  UNL1        0.0223
     30 C         139.0578  148.6097  155.8105 C.3     1  UNL1        0.0044
     31 C         138.8248  147.1666  156.1471 C.3     1  UNL1        0.0020
     32 C         140.1722  150.4202  154.3171 C.ar    1  UNL1       -0.0226
     33 C         139.0059  151.3457  154.1352 C.ar    1  UNL1       -0.0004
     34 C         139.2389  152.7887  153.7986 C.ar    1  UNL1        0.0711
     35 C         140.6383  153.3063  153.6438 C.ar    1  UNL1        0.0077
     36 C         141.8046  152.3808  153.8257 C.ar    1  UNL1        0.0711
     37 C         141.5716  150.9378  154.1623 C.ar    1  UNL1       -0.0004
     38 C         138.0725  153.7142  153.6167 C.3     1  UNL1        0.4186
     39 F         136.9061  154.6396  153.4348 F       1  UNL1       -0.1659
     40 F         137.8224  153.6895  155.0955 F       1  UNL1       -0.1659
     41 F         138.3226  153.7388  152.1379 F       1  UNL1       -0.1659
     42 C         143.2039  152.8984  153.6709 C.3     1  UNL1        0.4186
     43 F         144.6032  153.4161  153.5161 F       1  UNL1       -0.1659
     44 F         143.7010  151.8331  154.6025 F       1  UNL1       -0.1659
     45 F         142.7068  153.9638  152.7393 F       1  UNL1       -0.1659
@<TRIPOS>BOND
     1    20    21    1
     2    21    22    1
     3    21    11    1
     4    11    12   ar
     5    12    13   ar
     6    13    23    1
     7    23    24    3
     8    13    14   ar
     9    14    15   ar
    10    15    16   ar
    11    16    17   ar
    12    17     5    1
    13     5     6   ar
    14     6     7   ar
    15     7     8   ar
    16     8     1    1
    17     1     2    2
    18     1     3   am
    19     3    25    1
    20    26    25    1
    21    26    27    1
    22    27    28    1
    23    28    29    1
    24    29    32    1
    25    32    33   ar
    26    33    34   ar
    27    34    38    1
    28    38    39    1
    29    38    40    1
    30    38    41    1
    31    34    35   ar
    32    35    36   ar
    33    36    42    1
    34    42    43    1
    35    42    44    1
    36    42    45    1
    37    36    37   ar
    38    29    30    1
    39    30    31    1
    40     8     9   ar
    41     9    10   ar
    42    17    18   ar
    43    18    19   ar
    44    19    11   ar
    45    19    15   ar
    46    10     5   ar
    47    31    26    1
    48    37    32   ar
    49     3     4    1
@<TRIPOS>MOLECULE
*****
 45 49 0 0 0
SMALL
GASTEIGER

@<TRIPOS>ATOM
      1 C         141.9300  137.7065  157.5371 C.2     1  UNL1        0.2458
      2 O         140.7760  137.2299  156.7057 O.2     1  UNL1       -0.2701
      3 N         143.3291  137.6071  157.0054 N.am    1  UNL1       -0.3009
      4 H         144.0864  137.9199  157.5511 H       1  UNL1        0.1497
      5 C         141.1946  139.4346  161.6265 C.ar    1  UNL1        0.0536
      6 C         142.3836  138.5517  161.3881 C.ar    1  UNL1        0.0048
      7 C         142.6287  137.9757  160.0249 C.ar    1  UNL1        0.0047
      8 C         141.6848  138.2825  158.9002 C.ar    1  UNL1        0.0534
      9 C         140.4958  139.1654  159.1386 C.ar    1  UNL1        0.0047
     10 C         140.2507  139.7414  160.5018 C.ar    1  UNL1        0.0048
     11 C         140.1540  142.7509  165.6580 C.ar    1  UNL1        0.0143
     12 C         140.0446  142.5723  167.1433 C.ar    1  UNL1        0.0091
     13 C         140.2504  141.2174  167.7529 C.ar    1  UNL1        0.0698
     14 C         140.5657  140.0409  166.8773 C.ar    1  UNL1        0.0326
     15 C         140.6751  140.2196  165.3920 C.ar    1  UNL1        0.1192
     16 N         140.9718  139.2530  164.2840 N.ar    1  UNL1       -0.2082
     17 C         140.9494  140.0106  162.9896 C.ar    1  UNL1        0.2296
     18 O         140.6388  141.4454  163.2976 O.2     1  UNL1       -0.4349
     19 C         140.4692  141.5746  164.7824 C.ar    1  UNL1        0.1607
     20 C         141.0121  144.7061  164.1779 C.3     1  UNL1        0.0048
     21 C         139.9482  144.1059  165.0484 C.3     1  UNL1        0.0254
     22 C         138.6784  144.8607  165.3093 C.3     1  UNL1        0.0048
     23 C         140.1410  141.0387  169.2383 C.1     1  UNL1        0.1005
     24 N         140.0316  140.8601  170.7236 N.1     1  UNL1       -0.1908
     25 C         143.5742  137.0310  155.6423 C.3     1  UNL1        0.0896
     26 C         143.3603  135.5667  155.3973 C.3     1  UNL1        0.0196
     27 C         143.8636  134.5592  156.3880 C.3     1  UNL1        0.0020
     28 C         143.6497  133.0949  156.1430 C.3     1  UNL1        0.0044
     29 C         142.9325  132.6381  154.9073 C.3     1  UNL1        0.0223
     30 C         142.4292  133.6457  153.9165 C.3     1  UNL1        0.0044
     31 C         142.6431  135.1101  154.1615 C.3     1  UNL1        0.0020
     32 C         142.7186  131.1738  154.6622 C.ar    1  UNL1       -0.0226
     33 C         141.4402  130.5197  155.0956 C.ar    1  UNL1       -0.0004
     34 C         141.2263  129.0554  154.8506 C.ar    1  UNL1        0.0711
     35 C         142.2909  128.2452  154.1722 C.ar    1  UNL1        0.0077
     36 C         143.5693  128.8993  153.7388 C.ar    1  UNL1        0.0711
     37 C         143.7832  130.3636  153.9838 C.ar    1  UNL1       -0.0004
     38 C         139.9479  128.4014  155.2841 C.3     1  UNL1        0.4186
     39 F         138.6694  127.7475  155.7175 F       1  UNL1       -0.1659
     40 F         140.6232  127.0623  155.2552 F       1  UNL1       -0.1659
     41 F         139.2726  129.7405  155.3130 F       1  UNL1       -0.1659
     42 C         144.6338  128.0890  153.0603 C.3     1  UNL1        0.4186
     43 F         145.6983  127.2787  152.3819 F       1  UNL1       -0.1659
     44 F         143.8710  126.8334  153.3632 F       1  UNL1       -0.1659
     45 F         145.3965  129.3446  152.7575 F       1  UNL1       -0.1659
@<TRIPOS>BOND
     1    20    21    1
     2    21    22    1
     3    21    11    1
     4    11    12   ar
     5    12    13   ar
     6    13    23    1
     7    23    24    3
     8    13    14   ar
     9    14    15   ar
    10    15    16   ar
    11    16    17   ar
    12    17     5    1
    13     5     6   ar
    14     6     7   ar
    15     7     8   ar
    16     8     1    1
    17     1     2    2
    18     1     3   am
    19     3    25    1
    20    26    25    1
    21    26    27    1
    22    27    28    1
    23    28    29    1
    24    29    32    1
    25    32    33   ar
    26    33    34   ar
    27    34    38    1
    28    38    39    1
    29    38    40    1
    30    38    41    1
    31    34    35   ar
    32    35    36   ar
    33    36    42    1
    34    42    43    1
    35    42    44    1
    36    42    45    1
    37    36    37   ar
    38    29    30    1
    39    30    31    1
    40     8     9   ar
    41     9    10   ar
    42    17    18   ar
    43    18    19   ar
    44    19    11   ar
    45    19    15   ar
    46    10     5   ar
    47    31    26    1
    48    37    32   ar
    49     3     4    1
@<TRIPOS>MOLECULE
*****
 45 49 0 0 0
SMALL
GASTEIGER

@<TRIPOS>ATOM
      1 C         141.9583  137.7074  157.5308 C.2     1  UNL1        0.2458
      2 O         140.8062  137.2097  156.7094 O.2     1  UNL1       -0.2701
      3 N         143.3553  137.6255  156.9906 N.am    1  UNL1       -0.3009
      4 H         144.1115  137.9522  157.5298 H       1  UNL1        0.1497
      5 C         141.2237  139.4461  161.6159 C.ar    1  UNL1        0.0536
      6 C         140.1875  139.5920  160.5412 C.ar    1  UNL1        0.0048
      7 C         140.4324  139.0124  159.1795 C.ar    1  UNL1        0.0047
      8 C         141.7135  138.2869  158.8925 C.ar    1  UNL1        0.0534
      9 C         142.7497  138.1409  159.9671 C.ar    1  UNL1        0.0047
     10 C         142.5048  138.7205  161.3288 C.ar    1  UNL1        0.0048
     11 C         140.1792  142.7718  165.6386 C.ar    1  UNL1        0.0143
     12 C         140.0727  142.5975  167.1246 C.ar    1  UNL1        0.0091
     13 C         140.2835  141.2452  167.7381 C.ar    1  UNL1        0.0698
     14 C         140.6010  140.0670  166.8657 C.ar    1  UNL1        0.0326
     15 C         140.7076  140.2413  165.3797 C.ar    1  UNL1        0.1192
     16 N         141.0056  139.2721  164.2743 N.ar    1  UNL1       -0.2082
     17 C         140.9789  140.0256  162.9775 C.ar    1  UNL1        0.2296
     18 O         140.6644  141.4604  163.2815 O.2     1  UNL1       -0.4349
     19 C         140.4967  141.5937  164.7661 C.ar    1  UNL1        0.1607
     20 C         138.6958  144.8750  165.2837 C.3     1  UNL1        0.0048
     21 C         139.9683  144.1243  165.0251 C.3     1  UNL1        0.0254
     22 C         141.0301  144.7260  164.1528 C.3     1  UNL1        0.0048
     23 C         140.1769  141.0709  169.2242 C.1     1  UNL1        0.1005
     24 N         140.0704  140.8965  170.7102 N.1     1  UNL1       -0.1908
     25 C         143.6001  137.0460  155.6289 C.3     1  UNL1        0.0896
     26 C         143.3902  135.5803  155.3888 C.3     1  UNL1        0.0196
     27 C         143.9214  134.5762  156.3684 C.3     1  UNL1        0.0020
     28 C         143.7115  133.1105  156.1283 C.3     1  UNL1        0.0044
     29 C         142.9705  132.6489  154.9086 C.3     1  UNL1        0.0223
     30 C         142.4393  133.6530  153.9289 C.3     1  UNL1        0.0044
     31 C         142.6492  135.1187  154.1690 C.3     1  UNL1        0.0020
     32 C         142.7606  131.1832  154.6685 C.ar    1  UNL1       -0.0226
     33 C         143.8348  130.3698  154.0094 C.ar    1  UNL1       -0.0004
     34 C         143.6249  128.9041  153.7693 C.ar    1  UNL1        0.0711
     35 C         142.3407  128.2518  154.1883 C.ar    1  UNL1        0.0077
     36 C         141.2666  129.0652  154.8474 C.ar    1  UNL1        0.0711
     37 C         141.4764  130.5309  155.0875 C.ar    1  UNL1       -0.0004
     38 C         144.6991  128.0907  153.1102 C.3     1  UNL1        0.4186
     39 F         145.7733  127.2772  152.4511 F       1  UNL1       -0.1659
     40 F         145.4185  129.3503  152.7282 F       1  UNL1       -0.1659
     41 F         143.9798  126.8311  153.4922 F       1  UNL1       -0.1659
     42 C         139.9825  128.4129  155.2664 C.3     1  UNL1        0.4186
     43 F         138.6984  127.7606  155.6854 F       1  UNL1       -0.1659
     44 F         140.6554  127.0725  155.2419 F       1  UNL1       -0.1659
     45 F         139.3095  129.7533  155.2909 F       1  UNL1       -0.1659
@<TRIPOS>BOND
     1    20    21    1
     2    21    22    1
     3    21    11    1
     4    11    12   ar
     5    12    13   ar
     6    13    23    1
     7    23    24    3
     8    13    14   ar
     9    14    15   ar
    10    15    16   ar
    11    16    17   ar
    12    17     5    1
    13     5     6   ar
    14     6     7   ar
    15     7     8   ar
    16     8     1    1
    17     1     2    2
    18     1     3   am
    19     3    25    1
    20    26    25    1
    21    26    27    1
    22    27    28    1
    23    28    29    1
    24    29    32    1
    25    32    33   ar
    26    33    34   ar
    27    34    38    1
    28    38    39    1
    29    38    40    1
    30    38    41    1
    31    34    35   ar
    32    35    36   ar
    33    36    42    1
    34    42    43    1
    35    42    44    1
    36    42    45    1
    37    36    37   ar
    38    29    30    1
    39    30    31    1
    40     8     9   ar
    41     9    10   ar
    42    17    18   ar
    43    18    19   ar
    44    19    11   ar
    45    19    15   ar
    46    10     5   ar
    47    31    26    1
    48    37    32   ar
    49     3     4    1
@<TRIPOS>MOLECULE
*****
 45 49 0 0 0
SMALL
GASTEIGER

@<TRIPOS>ATOM
      1 C         141.3905  138.2374  158.5395 C.2     1  UNL1        0.2458
      2 O         140.2430  138.4865  157.6062 O.2     1  UNL1       -0.2701
      3 N         142.5794  137.4506  158.0731 N.am    1  UNL1       -0.3009
      4 H         143.3326  137.2871  158.6858 H       1  UNL1        0.1497
      5 C         141.2663  139.8502  162.7388 C.ar    1  UNL1        0.0536
      6 C         142.0744  138.6249  162.4296 C.ar    1  UNL1        0.0048
      7 C         142.1158  138.0873  161.0298 C.ar    1  UNL1        0.0047
      8 C         141.3491  138.7750  159.9392 C.ar    1  UNL1        0.0534
      9 C         140.5410  140.0003  160.2484 C.ar    1  UNL1        0.0047
     10 C         140.4997  140.5379  161.6482 C.ar    1  UNL1        0.0048
     11 C         141.8612  140.4680  167.9922 C.ar    1  UNL1        0.0143
     12 C         141.4574  141.5400  168.9606 C.ar    1  UNL1        0.0091
     13 C         140.7216  142.7527  168.4731 C.ar    1  UNL1        0.0698
     14 C         140.3895  142.8935  167.0170 C.ar    1  UNL1        0.0326
     15 C         140.7933  141.8215  166.0486 C.ar    1  UNL1        0.1192
     16 N         140.6053  141.6850  164.5667 N.ar    1  UNL1       -0.2082
     17 C         141.2249  140.3879  164.1385 C.ar    1  UNL1        0.2296
     18 O         141.7959  139.7227  165.3557 O.2     1  UNL1       -0.4349
     19 C         141.5292  140.6088  166.5362 C.ar    1  UNL1        0.1607
     20 C         142.5313  138.8699  169.9280 C.3     1  UNL1        0.0048
     21 C         142.5971  139.2553  168.4798 C.3     1  UNL1        0.0254
     22 C         143.3988  138.4278  167.5192 C.3     1  UNL1        0.0048
     23 C         140.3178  143.8247  169.4415 C.1     1  UNL1        0.1005
     24 N         139.9140  144.8967  170.4099 N.1     1  UNL1       -0.1908
     25 C         142.6208  136.9129  156.6734 C.3     1  UNL1        0.0896
     26 C         142.5005  135.4372  156.4329 C.3     1  UNL1        0.0196
     27 C         141.5536  134.9221  155.3899 C.3     1  UNL1        0.0020
     28 C         141.4333  133.4464  155.1494 C.3     1  UNL1        0.0044
     29 C         142.2599  132.4859  155.9520 C.3     1  UNL1        0.0223
     30 C         143.2069  133.0011  156.9951 C.3     1  UNL1        0.0044
     31 C         143.3272  134.4768  157.2356 C.3     1  UNL1        0.0020
     32 C         142.1395  131.0102  155.7115 C.ar    1  UNL1       -0.0226
     33 C         141.0666  130.4829  154.8057 C.ar    1  UNL1       -0.0004
     34 C         140.9463  129.0072  154.5652 C.ar    1  UNL1        0.0711
     35 C         141.8990  128.0588  155.2306 C.ar    1  UNL1        0.0077
     36 C         142.9720  128.5861  156.1365 C.ar    1  UNL1        0.0711
     37 C         143.0923  130.0618  156.3770 C.ar    1  UNL1       -0.0004
     38 C         139.8732  128.4800  153.6593 C.3     1  UNL1        0.4186
     39 F         138.8002  127.9529  152.7534 F       1  UNL1       -0.1659
     40 F         140.1360  127.0897  154.1572 F       1  UNL1       -0.1659
     41 F         139.6105  129.8703  153.1613 F       1  UNL1       -0.1659
     42 C         143.9247  127.6376  156.8019 C.3     1  UNL1        0.4186
     43 F         144.8774  126.6891  157.4673 F       1  UNL1       -0.1659
     44 F         143.0252  126.4891  156.4527 F       1  UNL1       -0.1659
     45 F         144.8242  128.7861  157.1511 F       1  UNL1       -0.1659
@<TRIPOS>BOND
     1    20    21    1
     2    21    22    1
     3    21    11    1
     4    11    12   ar
     5    12    13   ar
     6    13    23    1
     7    23    24    3
     8    13    14   ar
     9    14    15   ar
    10    15    16   ar
    11    16    17   ar
    12    17     5    1
    13     5     6   ar
    14     6     7   ar
    15     7     8   ar
    16     8     1    1
    17     1     2    2
    18     1     3   am
    19     3    25    1
    20    26    25    1
    21    26    27    1
    22    27    28    1
    23    28    29    1
    24    29    32    1
    25    32    33   ar
    26    33    34   ar
    27    34    38    1
    28    38    39    1
    29    38    40    1
    30    38    41    1
    31    34    35   ar
    32    35    36   ar
    33    36    42    1
    34    42    43    1
    35    42    44    1
    36    42    45    1
    37    36    37   ar
    38    29    30    1
    39    30    31    1
    40     8     9   ar
    41     9    10   ar
    42    17    18   ar
    43    18    19   ar
    44    19    11   ar
    45    19    15   ar
    46    10     5   ar
    47    31    26    1
    48    37    32   ar
    49     3     4    1
@<TRIPOS>MOLECULE
*****
 45 49 0 0 0
SMALL
GASTEIGER

@<TRIPOS>ATOM
      1 C         141.4423  138.2360  158.5617 C.2     1  UNL1        0.2458
      2 O         140.2682  138.4221  157.6469 O.2     1  UNL1       -0.2701
      3 N         142.6638  137.5130  158.0767 N.am    1  UNL1       -0.3009
      4 H         143.4344  137.3909  158.6772 H       1  UNL1        0.1497
      5 C         141.3000  139.8469  162.7611 C.ar    1  UNL1        0.0536
      6 C         141.9471  138.5215  162.4878 C.ar    1  UNL1        0.0048
      7 C         141.9945  137.9846  161.0879 C.ar    1  UNL1        0.0047
      8 C         141.3949  138.7730  159.9615 C.ar    1  UNL1        0.0534
      9 C         140.7478  140.0983  160.2348 C.ar    1  UNL1        0.0047
     10 C         140.7004  140.6352  161.6347 C.ar    1  UNL1        0.0048
     11 C         141.8762  140.4642  168.0167 C.ar    1  UNL1        0.0143
     12 C         141.4663  141.5347  168.9842 C.ar    1  UNL1        0.0091
     13 C         140.7287  142.7455  168.4947 C.ar    1  UNL1        0.0698
     14 C         140.4009  142.8860  167.0377 C.ar    1  UNL1        0.0326
     15 C         140.8108  141.8155  166.0702 C.ar    1  UNL1        0.1192
     16 N         140.6279  141.6791  164.5877 N.ar    1  UNL1       -0.2082
     17 C         141.2526  140.3838  164.1609 C.ar    1  UNL1        0.2296
     18 O         141.8215  139.7198  165.3797 O.2     1  UNL1       -0.4349
     19 C         141.5485  140.6047  166.5597 C.ar    1  UNL1        0.1607
     20 C         142.5900  138.8989  169.9635 C.3     1  UNL1        0.0048
     21 C         142.6139  139.2534  168.5062 C.3     1  UNL1        0.0254
     22 C         143.3755  138.3969  167.5383 C.3     1  UNL1        0.0048
     23 C         140.3187  143.8161  169.4623 C.1     1  UNL1        0.1005
     24 N         139.9088  144.8865  170.4298 N.1     1  UNL1       -0.1908
     25 C         142.7113  136.9760  156.6769 C.3     1  UNL1        0.0896
     26 C         142.5723  135.5024  156.4338 C.3     1  UNL1        0.0196
     27 C         141.6809  135.0043  155.3351 C.3     1  UNL1        0.0020
     28 C         141.5420  133.5307  155.0920 C.3     1  UNL1        0.0044
     29 C         142.2945  132.5551  155.9476 C.3     1  UNL1        0.0223
     30 C         143.1859  133.0533  157.0464 C.3     1  UNL1        0.0044
     31 C         143.3249  134.5269  157.2895 C.3     1  UNL1        0.0020
     32 C         142.1556  131.0815  155.7045 C.ar    1  UNL1       -0.0226
     33 C         143.0804  130.1182  156.3876 C.ar    1  UNL1       -0.0004
     34 C         142.9415  128.6446  156.1445 C.ar    1  UNL1        0.0711
     35 C         141.8776  128.1343  155.2182 C.ar    1  UNL1        0.0077
     36 C         140.9528  129.0976  154.5351 C.ar    1  UNL1        0.0711
     37 C         141.0917  130.5712  154.7783 C.ar    1  UNL1       -0.0004
     38 C         143.8663  127.6813  156.8276 C.3     1  UNL1        0.4186
     39 F         144.7913  126.7181  157.5106 F       1  UNL1       -0.1659
     40 F         142.6857  126.9073  157.3347 F       1  UNL1       -0.1659
     41 F         145.0470  128.4552  156.3205 F       1  UNL1       -0.1659
     42 C         139.8890  128.5873  153.6089 C.3     1  UNL1        0.4186
     43 F         138.8252  128.0769  152.6827 F       1  UNL1       -0.1659
     44 F         139.1621  127.9859  154.7751 F       1  UNL1       -0.1659
     45 F         140.6158  129.1887  152.4427 F       1  UNL1       -0.1659
@<TRIPOS>BOND
     1    20    21    1
     2    21    22    1
     3    21    11    1
     4    11    12   ar
     5    12    13   ar
     6    13    23    1
     7    23    24    3
     8    13    14   ar
     9    14    15   ar
    10    15    16   ar
    11    16    17   ar
    12    17     5    1
    13     5     6   ar
    14     6     7   ar
    15     7     8   ar
    16     8     1    1
    17     1     2    2
    18     1     3   am
    19     3    25    1
    20    26    25    1
    21    26    27    1
    22    27    28    1
    23    28    29    1
    24    29    32    1
    25    32    33   ar
    26    33    34   ar
    27    34    38    1
    28    38    39    1
    29    38    40    1
    30    38    41    1
    31    34    35   ar
    32    35    36   ar
    33    36    42    1
    34    42    43    1
    35    42    44    1
    36    42    45    1
    37    36    37   ar
    38    29    30    1
    39    30    31    1
    40     8     9   ar
    41     9    10   ar
    42    17    18   ar
    43    18    19   ar
    44    19    11   ar
    45    19    15   ar
    46    10     5   ar
    47    31    26    1
    48    37    32   ar
    49     3     4    1
@<TRIPOS>MOLECULE
*****
 45 49 0 0 0
SMALL
GASTEIGER

@<TRIPOS>ATOM
      1 C         142.5489  139.7916  159.4377 C.2     1  UNL1        0.2458
      2 O         141.2250  140.4966  159.4194 O.2     1  UNL1       -0.2701
      3 N         143.7006  140.3784  160.1988 N.am    1  UNL1       -0.3009
      4 H         144.5695  139.9156  160.2108 H       1  UNL1        0.1497
      5 C         143.0652  135.9163  157.2094 C.ar    1  UNL1        0.0536
      6 C         143.1544  135.9382  158.7066 C.ar    1  UNL1        0.0048
      7 C         142.9823  137.2300  159.4493 C.ar    1  UNL1        0.0047
      8 C         142.7210  138.4999  158.6949 C.ar    1  UNL1        0.0534
      9 C         142.6317  138.4780  157.1978 C.ar    1  UNL1        0.0047
     10 C         142.8038  137.1861  156.4550 C.ar    1  UNL1        0.0048
     11 C         142.5920  131.9380  153.7046 C.ar    1  UNL1        0.0143
     12 C         143.2706  130.6093  153.5492 C.ar    1  UNL1        0.0091
     13 C         144.3297  130.1894  154.5248 C.ar    1  UNL1        0.0698
     14 C         144.7103  131.0981  155.6560 C.ar    1  UNL1        0.0326
     15 C         144.0317  132.4268  155.8114 C.ar    1  UNL1        0.1192
     16 N         144.1953  133.5255  156.8193 N.ar    1  UNL1       -0.2082
     17 C         143.2373  134.6245  156.4666 C.ar    1  UNL1        0.2296
     18 O         142.4816  134.2050  155.2407 O.2     1  UNL1       -0.4349
     19 C         142.9725  132.8467  154.8357 C.ar    1  UNL1        0.1607
     20 C         140.3251  131.4945  152.5154 C.3     1  UNL1        0.0048
     21 C         141.5329  132.3579  152.7289 C.3     1  UNL1        0.0254
     22 C         141.6816  133.6414  151.9668 C.3     1  UNL1        0.0048
     23 C         145.0083  128.8607  154.3693 C.1     1  UNL1        0.1005
     24 N         145.6869  127.5320  154.2139 N.1     1  UNL1       -0.1908
     25 C         143.5285  141.6701  160.9416 C.3     1  UNL1        0.0896
     26 C         143.0981  141.6575  162.3785 C.3     1  UNL1        0.0196
     27 C         142.7186  140.3639  163.0363 C.3     1  UNL1        0.0020
     28 C         142.2882  140.3513  164.4732 C.3     1  UNL1        0.0044
     29 C         142.2373  141.6321  165.2522 C.3     1  UNL1        0.0223
     30 C         142.6168  142.9257  164.5943 C.3     1  UNL1        0.0044
     31 C         143.0472  142.9384  163.1574 C.3     1  UNL1        0.0020
     32 C         141.8069  141.6195  166.6890 C.ar    1  UNL1       -0.0226
     33 C         142.5993  142.3726  167.7161 C.ar    1  UNL1       -0.0004
     34 C         142.1689  142.3599  169.1529 C.ar    1  UNL1        0.0711
     35 C         140.9460  141.5941  169.5627 C.ar    1  UNL1        0.0077
     36 C         140.1535  140.8410  168.5357 C.ar    1  UNL1        0.0711
     37 C         140.5839  140.8536  167.0989 C.ar    1  UNL1       -0.0004
     38 C         142.9615  143.1131  170.1799 C.3     1  UNL1        0.4186
     39 F         143.7540  143.8661  171.2068 F       1  UNL1       -0.1659
     40 F         141.8110  144.0552  170.3767 F       1  UNL1       -0.1659
     41 F         144.1119  142.1709  169.9830 F       1  UNL1       -0.1659
     42 C         138.9306  140.0752  168.9456 C.3     1  UNL1        0.4186
     43 F         137.7077  139.3094  169.3555 F       1  UNL1       -0.1659
     44 F         138.6432  139.7640  167.5067 F       1  UNL1       -0.1659
     45 F         139.2180  140.3864  170.3846 F       1  UNL1       -0.1659
@<TRIPOS>BOND
     1    20    21    1
     2    21    22    1
     3    21    11    1
     4    11    12   ar
     5    12    13   ar
     6    13    23    1
     7    23    24    3
     8    13    14   ar
     9    14    15   ar
    10    15    16   ar
    11    16    17   ar
    12    17     5    1
    13     5     6   ar
    14     6     7   ar
    15     7     8   ar
    16     8     1    1
    17     1     2    2
    18     1     3   am
    19     3    25    1
    20    26    25    1
    21    26    27    1
    22    27    28    1
    23    28    29    1
    24    29    32    1
    25    32    33   ar
    26    33    34   ar
    27    34    38    1
    28    38    39    1
    29    38    40    1
    30    38    41    1
    31    34    35   ar
    32    35    36   ar
    33    36    42    1
    34    42    43    1
    35    42    44    1
    36    42    45    1
    37    36    37   ar
    38    29    30    1
    39    30    31    1
    40     8     9   ar
    41     9    10   ar
    42    17    18   ar
    43    18    19   ar
    44    19    11   ar
    45    19    15   ar
    46    10     5   ar
    47    31    26    1
    48    37    32   ar
    49     3     4    1
@<TRIPOS>MOLECULE
*****
 45 49 0 0 0
SMALL
GASTEIGER

@<TRIPOS>ATOM
      1 C         142.9539  138.3207  157.9947 C.2     1  UNL1        0.2458
      2 O         143.9508  138.9437  157.0630 O.2     1  UNL1       -0.2701
      3 N         142.2251  137.0740  157.5890 N.am    1  UNL1       -0.3009
      4 H         141.5709  136.6652  158.2006 H       1  UNL1        0.1497
      5 C         142.1497  140.1922  162.0074 C.ar    1  UNL1        0.0536
      6 C         141.4796  140.7336  160.7795 C.ar    1  UNL1        0.0048
      7 C         141.7477  140.1098  159.4419 C.ar    1  UNL1        0.0047
      8 C         142.6859  138.9445  159.3323 C.ar    1  UNL1        0.0534
      9 C         143.3560  138.4031  160.5602 C.ar    1  UNL1        0.0047
     10 C         143.0879  139.0270  161.8977 C.ar    1  UNL1        0.0048
     11 C         140.0069  142.9728  166.0087 C.ar    1  UNL1        0.0143
     12 C         140.3898  143.1847  167.4434 C.ar    1  UNL1        0.0091
     13 C         141.6199  142.5282  167.9962 C.ar    1  UNL1        0.0698
     14 C         142.4672  141.6596  167.1142 C.ar    1  UNL1        0.0326
     15 C         142.0843  141.4477  165.6795 C.ar    1  UNL1        0.1192
     16 N         142.7194  140.6515  164.5783 N.ar    1  UNL1       -0.2082
     17 C         141.8817  140.8160  163.3449 C.ar    1  UNL1        0.2296
     18 O         140.7289  141.7139  163.6839 O.2     1  UNL1       -0.4349
     19 C         140.8541  142.1043  165.1268 C.ar    1  UNL1        0.1607
     20 C         137.8110  142.8356  164.6270 C.3     1  UNL1        0.0048
     21 C         138.7767  143.6294  165.4560 C.3     1  UNL1        0.0254
     22 C         138.5122  145.0799  165.7322 C.3     1  UNL1        0.0048
     23 C         142.0029  142.7401  169.4310 C.1     1  UNL1        0.1005
     24 N         142.3859  142.9521  170.8657 N.1     1  UNL1       -0.1908
     25 C         142.4932  136.4502  156.2514 C.3     1  UNL1        0.0896
     26 C         142.4186  134.9608  156.0900 C.3     1  UNL1        0.0196
     27 C         141.4870  134.3618  155.0785 C.3     1  UNL1        0.0020
     28 C         141.4125  132.8724  154.9171 C.3     1  UNL1        0.0044
     29 C         142.2695  131.9820  155.7672 C.3     1  UNL1        0.0223
     30 C         143.2012  132.5811  156.7788 C.3     1  UNL1        0.0044
     31 C         143.2757  134.0705  156.9402 C.3     1  UNL1        0.0020
     32 C         142.1950  130.4926  155.6058 C.ar    1  UNL1       -0.0226
     33 C         143.3639  129.6366  155.9942 C.ar    1  UNL1       -0.0004
     34 C         143.2893  128.1472  155.8327 C.ar    1  UNL1        0.0711
     35 C         142.0457  127.5138  155.2829 C.ar    1  UNL1        0.0077
     36 C         140.8768  128.3697  154.8946 C.ar    1  UNL1        0.0711
     37 C         140.9514  129.8591  155.0560 C.ar    1  UNL1       -0.0004
     38 C         144.4583  127.2913  156.2211 C.3     1  UNL1        0.4186
     39 F         145.6273  126.4353  156.6096 F       1  UNL1       -0.1659
     40 F         145.3767  128.1996  155.4586 F       1  UNL1       -0.1659
     41 F         143.5399  126.3830  156.9836 F       1  UNL1       -0.1659
     42 C         139.6333  127.7362  154.3447 C.3     1  UNL1        0.4186
     43 F         138.3897  127.1027  153.7949 F       1  UNL1       -0.1659
     44 F         140.2357  127.7460  152.9710 F       1  UNL1       -0.1659
     45 F         139.0309  127.7264  155.7185 F       1  UNL1       -0.1659
@<TRIPOS>BOND
     1    20    21    1
     2    21    22    1
     3    21    11    1
     4    11    12   ar
     5    12    13   ar
     6    13    23    1
     7    23    24    3
     8    13    14   ar
     9    14    15   ar
    10    15    16   ar
    11    16    17   ar
    12    17     5    1
    13     5     6   ar
    14     6     7   ar
    15     7     8   ar
    16     8     1    1
    17     1     2    2
    18     1     3   am
    19     3    25    1
    20    26    25    1
    21    26    27    1
    22    27    28    1
    23    28    29    1
    24    29    32    1
    25    32    33   ar
    26    33    34   ar
    27    34    38    1
    28    38    39    1
    29    38    40    1
    30    38    41    1
    31    34    35   ar
    32    35    36   ar
    33    36    42    1
    34    42    43    1
    35    42    44    1
    36    42    45    1
    37    36    37   ar
    38    29    30    1
    39    30    31    1
    40     8     9   ar
    41     9    10   ar
    42    17    18   ar
    43    18    19   ar
    44    19    11   ar
    45    19    15   ar
    46    10     5   ar
    47    31    26    1
    48    37    32   ar
    49     3     4    1
@<TRIPOS>MOLECULE
*****
 45 49 0 0 0
SMALL
GASTEIGER

@<TRIPOS>ATOM
      1 C         143.3698  143.2160  158.3129 C.2     1  UNL1        0.2458
      2 O         142.9709  144.5266  157.7021 O.2     1  UNL1       -0.2701
      3 N         144.1799  142.2342  157.5193 N.am    1  UNL1       -0.3009
      4 H         144.4417  141.3740  157.9203 H       1  UNL1        0.1497
      5 C         142.1358  142.2297  162.5266 C.ar    1  UNL1        0.0536
      6 C         141.3964  143.2826  161.7556 C.ar    1  UNL1        0.0048
      7 C         141.8077  143.6113  160.3510 C.ar    1  UNL1        0.0047
      8 C         142.9585  142.8872  159.7175 C.ar    1  UNL1        0.0534
      9 C         143.6980  141.8343  160.4885 C.ar    1  UNL1        0.0047
     10 C         143.2866  141.5055  161.8931 C.ar    1  UNL1        0.0048
     11 C         139.8916  139.9804  166.7973 C.ar    1  UNL1        0.0143
     12 C         139.9574  140.2605  168.2694 C.ar    1  UNL1        0.0091
     13 C         140.8012  141.3901  168.7810 C.ar    1  UNL1        0.0698
     14 C         141.5794  142.2398  167.8204 C.ar    1  UNL1        0.0326
     15 C         141.5136  141.9597  166.3483 C.ar    1  UNL1        0.1192
     16 N         142.1656  142.6215  165.1706 N.ar    1  UNL1       -0.2082
     17 C         141.7246  141.9009  163.9312 C.ar    1  UNL1        0.2296
     18 O         140.8001  140.7936  164.3428 O.2     1  UNL1       -0.4349
     19 C         140.6697  140.8300  165.8367 C.ar    1  UNL1        0.1607
     20 C         137.6825  138.6144  166.8605 C.3     1  UNL1        0.0048
     21 C         139.0477  138.8508  166.2857 C.3     1  UNL1        0.0254
     22 C         139.5690  137.9574  165.1992 C.3     1  UNL1        0.0048
     23 C         140.8670  141.6702  170.2532 C.1     1  UNL1        0.1005
     24 N         140.9327  141.9503  171.7253 N.1     1  UNL1       -0.1908
     25 C         144.5912  142.5630  156.1148 C.3     1  UNL1        0.0896
     26 C         146.0111  142.3516  155.6801 C.3     1  UNL1        0.0196
     27 C         146.3144  141.9995  154.2539 C.3     1  UNL1        0.0020
     28 C         147.7344  141.7881  153.8192 C.3     1  UNL1        0.0044
     29 C         148.8511  141.9288  154.8108 C.3     1  UNL1        0.0223
     30 C         148.5478  142.2809  156.2371 C.3     1  UNL1        0.0044
     31 C         147.1278  142.4923  156.6717 C.3     1  UNL1        0.0020
     32 C         150.2711  141.7174  154.3761 C.ar    1  UNL1       -0.0226
     33 C         151.2919  142.7936  154.5991 C.ar    1  UNL1       -0.0004
     34 C         152.7118  142.5822  154.1644 C.ar    1  UNL1        0.0711
     35 C         153.1110  141.2945  153.5067 C.ar    1  UNL1        0.0077
     36 C         152.0902  140.2183  153.2837 C.ar    1  UNL1        0.0711
     37 C         150.6702  140.4297  153.7184 C.ar    1  UNL1       -0.0004
     38 C         153.7326  143.6584  154.3874 C.3     1  UNL1        0.4186
     39 F         154.7534  144.7346  154.6104 F       1  UNL1       -0.1659
     40 F         152.6335  144.6537  154.6144 F       1  UNL1       -0.1659
     41 F         154.8316  142.6632  154.1604 F       1  UNL1       -0.1659
     42 C         152.4895  138.9306  152.6260 C.3     1  UNL1        0.4186
     43 F         152.8887  137.6430  151.9683 F       1  UNL1       -0.1659
     44 F         153.9319  139.2379  152.9001 F       1  UNL1       -0.1659
     45 F         151.0471  138.6234  152.3520 F       1  UNL1       -0.1659
@<TRIPOS>BOND
     1    20    21    1
     2    21    22    1
     3    21    11    1
     4    11    12   ar
     5    12    13   ar
     6    13    23    1
     7    23    24    3
     8    13    14   ar
     9    14    15   ar
    10    15    16   ar
    11    16    17   ar
    12    17     5    1
    13     5     6   ar
    14     6     7   ar
    15     7     8   ar
    16     8     1    1
    17     1     2    2
    18     1     3   am
    19     3    25    1
    20    26    25    1
    21    26    27    1
    22    27    28    1
    23    28    29    1
    24    29    32    1
    25    32    33   ar
    26    33    34   ar
    27    34    38    1
    28    38    39    1
    29    38    40    1
    30    38    41    1
    31    34    35   ar
    32    35    36   ar
    33    36    42    1
    34    42    43    1
    35    42    44    1
    36    42    45    1
    37    36    37   ar
    38    29    30    1
    39    30    31    1
    40     8     9   ar
    41     9    10   ar
    42    17    18   ar
    43    18    19   ar
    44    19    11   ar
    45    19    15   ar
    46    10     5   ar
    47    31    26    1
    48    37    32   ar
    49     3     4    1
@<TRIPOS>MOLECULE
*****
 45 49 0 0 0
SMALL
GASTEIGER

@<TRIPOS>ATOM
      1 C         142.5516  139.5057  159.4306 C.2     1  UNL1        0.2458
      2 O         141.1800  140.1015  159.5470 O.2     1  UNL1       -0.2701
      3 N         143.7271  140.2025  160.0492 N.am    1  UNL1       -0.3009
      4 H         144.6273  139.8114  159.9727 H       1  UNL1        0.1497
      5 C         143.1400  135.6273  157.2255 C.ar    1  UNL1        0.0536
      6 C         143.1775  135.6507  158.7249 C.ar    1  UNL1        0.0048
      7 C         142.9813  136.9436  159.4599 C.ar    1  UNL1        0.0047
      8 C         142.7477  138.2129  158.6955 C.ar    1  UNL1        0.0534
      9 C         142.7103  138.1895  157.1962 C.ar    1  UNL1        0.0047
     10 C         142.9064  136.8966  156.4612 C.ar    1  UNL1        0.0048
     11 C         142.7513  131.6263  153.7362 C.ar    1  UNL1        0.0143
     12 C         143.4494  130.3064  153.5930 C.ar    1  UNL1        0.0091
     13 C         144.5057  129.9057  154.5795 C.ar    1  UNL1        0.0698
     14 C         144.8642  130.8249  155.7095 C.ar    1  UNL1        0.0326
     15 C         144.1661  132.1448  155.8527 C.ar    1  UNL1        0.1192
     16 N         144.3061  133.2505  156.8567 N.ar    1  UNL1       -0.2082
     17 C         143.3361  134.3345  156.4905 C.ar    1  UNL1        0.2296
     18 O         142.5967  133.8988  155.2603 O.2     1  UNL1       -0.4349
     19 C         143.1097  132.5455  154.8661 C.ar    1  UNL1        0.1607
     20 C         140.4925  131.1546  152.5425 C.3     1  UNL1        0.0048
     21 C         141.6949  132.0270  152.7496 C.3     1  UNL1        0.0254
     22 C         141.8410  133.3003  151.9700 C.3     1  UNL1        0.0048
     23 C         145.2038  128.5857  154.4363 C.1     1  UNL1        0.1005
     24 N         145.9019  127.2658  154.2930 N.1     1  UNL1       -0.1908
     25 C         143.5310  141.4953  160.7842 C.3     1  UNL1        0.0896
     26 C         143.1071  141.4832  162.2230 C.3     1  UNL1        0.0196
     27 C         144.1309  141.3062  163.3050 C.3     1  UNL1        0.0020
     28 C         143.7070  141.2941  164.7438 C.3     1  UNL1        0.0044
     29 C         142.2594  141.4589  165.1006 C.3     1  UNL1        0.0223
     30 C         141.2356  141.6359  164.0186 C.3     1  UNL1        0.0044
     31 C         141.6595  141.6480  162.5798 C.3     1  UNL1        0.0020
     32 C         141.8356  141.4468  166.5395 C.ar    1  UNL1       -0.0226
     33 C         140.5925  140.7140  166.9490 C.ar    1  UNL1       -0.0004
     34 C         140.1687  140.7019  168.3878 C.ar    1  UNL1        0.0711
     35 C         140.9880  141.4226  169.4171 C.ar    1  UNL1        0.0077
     36 C         142.2311  142.1553  169.0075 C.ar    1  UNL1        0.0711
     37 C         142.6549  142.1674  167.5687 C.ar    1  UNL1       -0.0004
     38 C         138.9256  139.9691  168.7973 C.3     1  UNL1        0.4186
     39 F         137.6825  139.2364  169.2069 F       1  UNL1       -0.1659
     40 F         138.7084  139.5430  167.3756 F       1  UNL1       -0.1659
     41 F         139.1427  140.3952  170.2190 F       1  UNL1       -0.1659
     42 C         143.0504  142.8759  170.0369 C.3     1  UNL1        0.4186
     43 F         143.8696  143.5966  171.0662 F       1  UNL1       -0.1659
     44 F         144.2233  142.8780  169.1019 F       1  UNL1       -0.1659
     45 F         141.8774  142.8739  170.9719 F       1  UNL1       -0.1659
@<TRIPOS>BOND
     1    20    21    1
     2    21    22    1
     3    21    11    1
     4    11    12   ar
     5    12    13   ar
     6    13    23    1
     7    23    24    3
     8    13    14   ar
     9    14    15   ar
    10    15    16   ar
    11    16    17   ar
    12    17     5    1
    13     5     6   ar
    14     6     7   ar
    15     7     8   ar
    16     8     1    1
    17     1     2    2
    18     1     3   am
    19     3    25    1
    20    26    25    1
    21    26    27    1
    22    27    28    1
    23    28    29    1
    24    29    32    1
    25    32    33   ar
    26    33    34   ar
    27    34    38    1
    28    38    39    1
    29    38    40    1
    30    38    41    1
    31    34    35   ar
    32    35    36   ar
    33    36    42    1
    34    42    43    1
    35    42    44    1
    36    42    45    1
    37    36    37   ar
    38    29    30    1
    39    30    31    1
    40     8     9   ar
    41     9    10   ar
    42    17    18   ar
    43    18    19   ar
    44    19    11   ar
    45    19    15   ar
    46    10     5   ar
    47    31    26    1
    48    37    32   ar
    49     3     4    1
