@<TRIPOS>MOLECULE
*****
 26 28 0 0 0
SMALL
GASTEIGER

@<TRIPOS>ATOM
      1 C         139.8237  140.1928  167.5788 C.ar    1  UNL1       -0.0001
      2 C         138.7253  139.3097  167.0655 C.ar    1  UNL1       -0.0003
      3 C         138.0603  139.6230  165.7579 C.ar    1  UNL1       -0.0029
      4 C         138.4938  140.8193  164.9637 C.ar    1  UNL1       -0.0047
      5 C         139.5922  141.7024  165.4770 C.ar    1  UNL1       -0.0047
      6 C         140.2572  141.3891  166.7846 C.ar    1  UNL1       -0.0029
      7 C         139.8046  142.8043  164.4816 C.3     1  UNL1        0.1202
      8 N         138.8374  142.6021  163.3530 N.am    1  UNL1       -0.2711
      9 C         138.7038  143.4737  162.1395 C.2     1  UNL1        0.2306
     10 O         137.6857  143.1447  161.0882 O.2     1  UNL1       -0.2745
     11 C         138.0273  141.3753  163.6510 C.3     1  UNL1        0.1202
     12 C         141.6405  140.7148  169.3611 C.2     1  UNL1        0.0598
     13 C         140.4886  139.8796  168.8864 C.2     1  UNL1        0.0047
     14 O         141.7764  140.9955  171.9404 O.2     1  UNL1       -0.2681
     15 C         142.3055  140.4016  170.6686 C.2     1  UNL1        0.2679
     16 N         143.4995  139.4944  170.7045 N.am    1  UNL1       -0.1934
     17 O         144.1645  139.1811  172.0120 O.3     1  UNL1       -0.2949
     18 H         143.8468  139.1045  169.8698 H       1  UNL1        0.1825
     19 H         143.7013  139.6420  172.7289 H       1  UNL1        0.2414
     20 C         139.5882  144.6743  161.9773 C.3     1  UNL1        0.1116
     21 C         141.0589  144.5648  162.2510 C.ar    1  UNL1       -0.0131
     22 C         141.9130  143.6620  161.4110 C.ar    1  UNL1       -0.0038
     23 C         143.3837  143.5525  161.6847 C.ar    1  UNL1       -0.0003
     24 C         144.0005  144.3459  162.7983 C.ar    1  UNL1       -0.0000
     25 C         143.1465  145.2488  163.6383 C.ar    1  UNL1       -0.0003
     26 C         141.6757  145.3582  163.3646 C.ar    1  UNL1       -0.0038
@<TRIPOS>BOND
     1    14    15    2
     2    15    12    1
     3    12    13    2
     4    13     1    1
     5     1     2   ar
     6     2     3   ar
     7     3     4   ar
     8     4     5   ar
     9     5     6   ar
    10     5     7    1
    11     7     8    1
    12     8     9   am
    13     9    10    2
    14     9    20    1
    15    20    21    1
    16    21    22   ar
    17    22    23   ar
    18    23    24   ar
    19    24    25   ar
    20    25    26   ar
    21     8    11    1
    22    15    16   am
    23    16    17    1
    24     6     1   ar
    25    26    21   ar
    26    11     4    1
    27    16    18    1
    28    17    19    1
@<TRIPOS>MOLECULE
*****
 26 28 0 0 0
SMALL
GASTEIGER

@<TRIPOS>ATOM
      1 C         139.4368  139.6246  167.3932 C.ar    1  UNL1       -0.0001
      2 C         138.3308  138.8565  166.7322 C.ar    1  UNL1       -0.0003
      3 C         138.5512  138.2332  165.3857 C.ar    1  UNL1       -0.0029
      4 C         139.8775  138.3781  164.7002 C.ar    1  UNL1       -0.0047
      5 C         140.9834  139.1462  165.3612 C.ar    1  UNL1       -0.0047
      6 C         140.7630  139.7694  166.7077 C.ar    1  UNL1       -0.0029
      7 C         142.1746  139.1208  164.4497 C.3     1  UNL1        0.1202
      8 N         141.8047  138.3371  163.2254 N.am    1  UNL1       -0.2711
      9 C         142.6977  138.0609  162.0522 C.2     1  UNL1        0.2306
     10 O         142.1864  137.2576  160.8933 O.2     1  UNL1       -0.2745
     11 C         140.3851  137.8780  163.3803 C.3     1  UNL1        0.1202
     12 C         140.2204  141.2161  169.2913 C.2     1  UNL1        0.0598
     13 C         139.2164  140.2478  168.7396 C.2     1  UNL1        0.0047
     14 O         140.7081  141.2932  171.8420 O.2     1  UNL1       -0.2681
     15 C         140.0000  141.8394  170.6377 C.2     1  UNL1        0.2679
     16 N         139.0714  143.0089  170.7799 N.am    1  UNL1       -0.1934
     17 O         138.8510  143.6321  172.1264 O.3     1  UNL1       -0.2949
     18 H         138.6066  143.3673  169.9895 H       1  UNL1        0.1825
     19 H         139.3796  143.1626  172.7905 H       1  UNL1        0.2414
     20 C         144.1020  138.5879  162.0381 C.3     1  UNL1        0.1116
     21 C         144.3495  140.0651  162.1196 C.ar    1  UNL1       -0.0131
     22 C         145.1114  140.6351  163.2792 C.ar    1  UNL1       -0.0038
     23 C         145.3589  142.1122  163.3607 C.ar    1  UNL1       -0.0003
     24 C         144.8445  143.0195  162.2826 C.ar    1  UNL1       -0.0000
     25 C         144.0826  142.4496  161.1230 C.ar    1  UNL1       -0.0003
     26 C         143.8351  140.9723  161.0415 C.ar    1  UNL1       -0.0038
@<TRIPOS>BOND
     1    14    15    2
     2    15    12    1
     3    12    13    2
     4    13     1    1
     5     1     2   ar
     6     2     3   ar
     7     3     4   ar
     8     4     5   ar
     9     5     6   ar
    10     5     7    1
    11     7     8    1
    12     8     9   am
    13     9    10    2
    14     9    20    1
    15    20    21    1
    16    21    22   ar
    17    22    23   ar
    18    23    24   ar
    19    24    25   ar
    20    25    26   ar
    21     8    11    1
    22    15    16   am
    23    16    17    1
    24     6     1   ar
    25    26    21   ar
    26    11     4    1
    27    16    18    1
    28    17    19    1
@<TRIPOS>MOLECULE
*****
 26 28 0 0 0
SMALL
GASTEIGER

@<TRIPOS>ATOM
      1 C         142.3643  139.0961  169.7686 C.ar    1  UNL1       -0.0001
      2 C         141.0058  139.4474  170.2987 C.ar    1  UNL1       -0.0003
      3 C         139.9956  140.0981  169.4008 C.ar    1  UNL1       -0.0029
      4 C         140.3440  140.3976  167.9729 C.ar    1  UNL1       -0.0047
      5 C         141.7025  140.0463  167.4429 C.ar    1  UNL1       -0.0047
      6 C         142.7127  139.3956  168.3408 C.ar    1  UNL1       -0.0029
      7 C         141.7591  140.4595  166.0020 C.3     1  UNL1        0.1202
      8 N         140.4354  141.0662  165.6415 N.am    1  UNL1       -0.2711
      9 C         140.0533  141.6148  164.2987 C.2     1  UNL1        0.2306
     10 O         138.6858  142.1932  164.0864 O.2     1  UNL1       -0.2745
     11 C         139.5609  141.0279  166.8596 C.3     1  UNL1        0.1202
     12 C         143.6707  136.9818  170.5255 C.2     1  UNL1        0.0598
     13 C         143.3745  138.4454  170.6665 C.2     1  UNL1        0.0047
     14 O         146.0385  136.9454  171.5940 O.2     1  UNL1       -0.2681
     15 C         144.6808  136.3311  171.4233 C.2     1  UNL1        0.2679
     16 N         144.3332  135.0659  172.1505 N.am    1  UNL1       -0.1934
     17 O         145.3434  134.4152  173.0484 O.3     1  UNL1       -0.2949
     18 H         143.4421  134.6627  172.0385 H       1  UNL1        0.1825
     19 H         146.1614  134.9365  173.0460 H       1  UNL1        0.2414
     20 C         141.0388  141.5849  163.1683 C.3     1  UNL1        0.1116
     21 C         142.0890  142.6504  163.0605 C.ar    1  UNL1       -0.0131
     22 C         143.3690  142.3708  162.3301 C.ar    1  UNL1       -0.0038
     23 C         144.4192  143.4363  162.2223 C.ar    1  UNL1       -0.0003
     24 C         144.1894  144.7816  162.8449 C.ar    1  UNL1       -0.0000
     25 C         142.9095  145.0612  163.5753 C.ar    1  UNL1       -0.0003
     26 C         141.8592  143.9956  163.6830 C.ar    1  UNL1       -0.0038
@<TRIPOS>BOND
     1    14    15    2
     2    15    12    1
     3    12    13    2
     4    13     1    1
     5     1     2   ar
     6     2     3   ar
     7     3     4   ar
     8     4     5   ar
     9     5     6   ar
    10     5     7    1
    11     7     8    1
    12     8     9   am
    13     9    10    2
    14     9    20    1
    15    20    21    1
    16    21    22   ar
    17    22    23   ar
    18    23    24   ar
    19    24    25   ar
    20    25    26   ar
    21     8    11    1
    22    15    16   am
    23    16    17    1
    24     6     1   ar
    25    26    21   ar
    26    11     4    1
    27    16    18    1
    28    17    19    1
@<TRIPOS>MOLECULE
*****
 26 28 0 0 0
SMALL
GASTEIGER

@<TRIPOS>ATOM
      1 C         138.4723  139.0725  165.9164 C.ar    1  UNL1       -0.0001
      2 C         138.7673  137.7043  165.3771 C.ar    1  UNL1       -0.0003
      3 C         138.8612  137.4860  163.8960 C.ar    1  UNL1       -0.0029
      4 C         138.6599  138.6360  162.9542 C.ar    1  UNL1       -0.0047
      5 C         138.3649  140.0042  163.4935 C.ar    1  UNL1       -0.0047
      6 C         138.2711  140.2225  164.9746 C.ar    1  UNL1       -0.0029
      7 C         138.2147  140.9388  162.3298 C.3     1  UNL1        0.1202
      8 N         138.4170  140.1480  161.0713 N.am    1  UNL1       -0.2711
      9 C         138.3549  140.6860  159.6724 C.2     1  UNL1        0.2306
     10 O         138.5794  139.7700  158.5060 O.2     1  UNL1       -0.2745
     11 C         138.6921  138.7249  161.4572 C.3     1  UNL1        0.1202
     12 C         139.5255  139.9117  168.1382 C.2     1  UNL1        0.0598
     13 C         138.3785  139.2907  167.3974 C.2     1  UNL1        0.0047
     14 O         138.1041  140.0278  170.3098 O.2     1  UNL1       -0.2681
     15 C         139.4317  140.1299  169.6193 C.2     1  UNL1        0.2679
     16 N         140.6656  140.4503  170.4098 N.am    1  UNL1       -0.1934
     17 O         140.5718  140.6685  171.8909 O.3     1  UNL1       -0.2949
     18 H         141.5370  140.5173  169.9566 H       1  UNL1        0.1825
     19 H         139.6499  140.5669  172.1749 H       1  UNL1        0.2414
     20 C         138.0684  142.1399  159.4400 C.3     1  UNL1        0.1116
     21 C         139.1995  143.1050  159.2423 C.ar    1  UNL1       -0.0131
     22 C         139.6054  143.5112  157.8566 C.ar    1  UNL1       -0.0038
     23 C         140.7365  144.4763  157.6589 C.ar    1  UNL1       -0.0003
     24 C         141.4619  145.0352  158.8471 C.ar    1  UNL1       -0.0000
     25 C         141.0560  144.6290  160.2328 C.ar    1  UNL1       -0.0003
     26 C         139.9248  143.6639  160.4304 C.ar    1  UNL1       -0.0038
@<TRIPOS>BOND
     1    14    15    2
     2    15    12    1
     3    12    13    2
     4    13     1    1
     5     1     2   ar
     6     2     3   ar
     7     3     4   ar
     8     4     5   ar
     9     5     6   ar
    10     5     7    1
    11     7     8    1
    12     8     9   am
    13     9    10    2
    14     9    20    1
    15    20    21    1
    16    21    22   ar
    17    22    23   ar
    18    23    24   ar
    19    24    25   ar
    20    25    26   ar
    21     8    11    1
    22    15    16   am
    23    16    17    1
    24     6     1   ar
    25    26    21   ar
    26    11     4    1
    27    16    18    1
    28    17    19    1
@<TRIPOS>MOLECULE
*****
 26 28 0 0 0
SMALL
GASTEIGER

@<TRIPOS>ATOM
      1 C         143.1231  142.2310  166.7088 C.ar    1  UNL1       -0.0001
      2 C         144.2092  143.0413  166.0656 C.ar    1  UNL1       -0.0003
      3 C         144.6607  142.7183  164.6721 C.ar    1  UNL1       -0.0029
      4 C         144.0262  141.5850  163.9218 C.ar    1  UNL1       -0.0047
      5 C         142.9401  140.7747  164.5650 C.ar    1  UNL1       -0.0047
      6 C         142.4886  141.0977  165.9585 C.ar    1  UNL1       -0.0029
      7 C         142.5040  139.7246  163.5867 C.3     1  UNL1        0.1202
      8 N         143.3205  139.8860  162.3388 N.am    1  UNL1       -0.2711
      9 C         143.2149  139.0451  161.1011 C.2     1  UNL1        0.2306
     10 O         144.1026  139.3266  159.9252 O.2     1  UNL1       -0.2745
     11 C         144.2613  141.0358  162.5460 C.3     1  UNL1        0.1202
     12 C         141.2075  142.6620  168.4101 C.2     1  UNL1        0.0598
     13 C         142.6716  142.5539  168.1023 C.2     1  UNL1        0.0047
     14 O         140.2233  144.3506  170.1218 O.2     1  UNL1       -0.2681
     15 C         140.7560  142.9850  169.8036 C.2     1  UNL1        0.2679
     16 N         140.8371  141.9423  170.8789 N.am    1  UNL1       -0.1934
     17 O         140.3856  142.2652  172.2724 O.3     1  UNL1       -0.2949
     18 H         141.1868  141.0460  170.6701 H       1  UNL1        0.1825
     19 H         140.0722  143.1826  172.3063 H       1  UNL1        0.2414
     20 C         142.2215  137.9230  161.0392 C.3     1  UNL1        0.1116
     21 C         140.7552  138.2114  161.1683 C.ar    1  UNL1       -0.0131
     22 C         140.0559  139.0257  160.1205 C.ar    1  UNL1       -0.0038
     23 C         138.5896  139.3141  160.2496 C.ar    1  UNL1       -0.0003
     24 C         137.8225  138.7882  161.4265 C.ar    1  UNL1       -0.0000
     25 C         138.5218  137.9739  162.4743 C.ar    1  UNL1       -0.0003
     26 C         139.9882  137.6855  162.3452 C.ar    1  UNL1       -0.0038
@<TRIPOS>BOND
     1    14    15    2
     2    15    12    1
     3    12    13    2
     4    13     1    1
     5     1     2   ar
     6     2     3   ar
     7     3     4   ar
     8     4     5   ar
     9     5     6   ar
    10     5     7    1
    11     7     8    1
    12     8     9   am
    13     9    10    2
    14     9    20    1
    15    20    21    1
    16    21    22   ar
    17    22    23   ar
    18    23    24   ar
    19    24    25   ar
    20    25    26   ar
    21     8    11    1
    22    15    16   am
    23    16    17    1
    24     6     1   ar
    25    26    21   ar
    26    11     4    1
    27    16    18    1
    28    17    19    1
@<TRIPOS>MOLECULE
*****
 26 28 0 0 0
SMALL
GASTEIGER

@<TRIPOS>ATOM
      1 C         143.1931  142.3263  169.9114 C.ar    1  UNL1       -0.0001
      2 C         142.2854  142.0556  171.0744 C.ar    1  UNL1       -0.0003
      3 C         140.9976  141.3158  170.8644 C.ar    1  UNL1       -0.0029
      4 C         140.6173  140.8467  169.4914 C.ar    1  UNL1       -0.0047
      5 C         141.5250  141.1175  168.3283 C.ar    1  UNL1       -0.0047
      6 C         142.8129  141.8573  168.5383 C.ar    1  UNL1       -0.0029
      7 C         140.8896  140.5374  167.0995 C.3     1  UNL1        0.1202
      8 N         139.5892  139.9081  167.5032 N.am    1  UNL1       -0.2711
      9 C         138.6261  139.2102  166.5892 C.2     1  UNL1        0.2306
     10 O         137.3585  138.6268  167.1395 O.2     1  UNL1       -0.2745
     11 C         139.4210  140.0993  168.9815 C.3     1  UNL1        0.1202
     12 C         144.5465  144.1920  171.1103 C.2     1  UNL1        0.0598
     13 C         144.4810  143.0661  170.1214 C.2     1  UNL1        0.0047
     14 O         147.1307  144.3220  170.8758 O.2     1  UNL1       -0.2681
     15 C         145.8344  144.9318  171.3203 C.2     1  UNL1        0.2679
     16 N         145.8259  146.2814  171.9749 N.am    1  UNL1       -0.1934
     17 O         147.1137  147.0212  172.1849 O.3     1  UNL1       -0.2949
     18 H         144.9750  146.6817  172.2667 H       1  UNL1        0.1825
     19 H         147.8506  146.4910  171.8433 H       1  UNL1        0.2414
     20 C         138.9306  139.0957  165.1249 C.3     1  UNL1        0.1116
     21 C         138.5141  140.1877  164.1846 C.ar    1  UNL1       -0.0131
     22 C         138.2044  141.5563  164.7147 C.ar    1  UNL1       -0.0038
     23 C         137.7879  142.6482  163.7744 C.ar    1  UNL1       -0.0003
     24 C         137.6811  142.3715  162.3040 C.ar    1  UNL1       -0.0000
     25 C         137.9908  141.0029  161.7739 C.ar    1  UNL1       -0.0003
     26 C         138.4073  139.9110  162.7143 C.ar    1  UNL1       -0.0038
@<TRIPOS>BOND
     1    14    15    2
     2    15    12    1
     3    12    13    2
     4    13     1    1
     5     1     2   ar
     6     2     3   ar
     7     3     4   ar
     8     4     5   ar
     9     5     6   ar
    10     5     7    1
    11     7     8    1
    12     8     9   am
    13     9    10    2
    14     9    20    1
    15    20    21    1
    16    21    22   ar
    17    22    23   ar
    18    23    24   ar
    19    24    25   ar
    20    25    26   ar
    21     8    11    1
    22    15    16   am
    23    16    17    1
    24     6     1   ar
    25    26    21   ar
    26    11     4    1
    27    16    18    1
    28    17    19    1
@<TRIPOS>MOLECULE
*****
 26 28 0 0 0
SMALL
GASTEIGER

@<TRIPOS>ATOM
      1 C         142.4236  140.0540  167.5152 C.ar    1  UNL1       -0.0001
      2 C         143.2055  138.8618  167.0492 C.ar    1  UNL1       -0.0003
      3 C         142.8245  138.1659  165.7762 C.ar    1  UNL1       -0.0029
      4 C         141.6616  138.6623  164.9692 C.ar    1  UNL1       -0.0047
      5 C         140.8797  139.8545  165.4352 C.ar    1  UNL1       -0.0047
      6 C         141.2607  140.5504  166.7082 C.ar    1  UNL1       -0.0029
      7 C         139.7903  140.1134  164.4371 C.3     1  UNL1        0.1202
      8 N         139.8989  139.0811  163.3542 N.am    1  UNL1       -0.2711
      9 C         139.0075  138.9659  162.1533 C.2     1  UNL1        0.2306
     10 O         139.2390  137.8758  161.1493 O.2     1  UNL1       -0.2745
     11 C         141.0555  138.1843  163.6831 C.3     1  UNL1        0.1202
     12 C         141.8707  141.7480  169.4059 C.2     1  UNL1        0.0598
     13 C         142.8047  140.7499  168.7883 C.2     1  UNL1        0.0047
     14 O         141.5703  142.0810  171.9650 O.2     1  UNL1       -0.2681
     15 C         142.2517  142.4439  170.6789 C.2     1  UNL1        0.2679
     16 N         143.3141  143.5028  170.6658 N.am    1  UNL1       -0.1934
     17 O         143.6951  144.1987  171.9389 O.3     1  UNL1       -0.2949
     18 H         143.7614  143.7410  169.8218 H       1  UNL1        0.1825
     19 H         143.1635  143.8482  172.6706 H       1  UNL1        0.2414
     20 C         137.8847  139.9408  161.9564 C.3     1  UNL1        0.1116
     21 C         138.1296  141.4109  162.1254 C.ar    1  UNL1       -0.0131
     22 C         137.3792  142.1809  163.1713 C.ar    1  UNL1       -0.0038
     23 C         137.6241  143.6511  163.3403 C.ar    1  UNL1       -0.0003
     24 C         138.6194  144.3513  162.4633 C.ar    1  UNL1       -0.0000
     25 C         139.3698  143.5813  161.4174 C.ar    1  UNL1       -0.0003
     26 C         139.1249  142.1111  161.2484 C.ar    1  UNL1       -0.0038
@<TRIPOS>BOND
     1    14    15    2
     2    15    12    1
     3    12    13    2
     4    13     1    1
     5     1     2   ar
     6     2     3   ar
     7     3     4   ar
     8     4     5   ar
     9     5     6   ar
    10     5     7    1
    11     7     8    1
    12     8     9   am
    13     9    10    2
    14     9    20    1
    15    20    21    1
    16    21    22   ar
    17    22    23   ar
    18    23    24   ar
    19    24    25   ar
    20    25    26   ar
    21     8    11    1
    22    15    16   am
    23    16    17    1
    24     6     1   ar
    25    26    21   ar
    26    11     4    1
    27    16    18    1
    28    17    19    1
@<TRIPOS>MOLECULE
*****
 26 28 0 0 0
SMALL
GASTEIGER

@<TRIPOS>ATOM
      1 C         139.8112  142.4453  161.4990 C.ar    1  UNL1       -0.0001
      2 C         138.3433  142.1375  161.4799 C.ar    1  UNL1       -0.0003
      3 C         137.7020  141.4675  162.6588 C.ar    1  UNL1       -0.0029
      4 C         138.5287  141.1052  163.8568 C.ar    1  UNL1       -0.0047
      5 C         139.9966  141.4129  163.8759 C.ar    1  UNL1       -0.0047
      6 C         140.6379  142.0829  162.6970 C.ar    1  UNL1       -0.0029
      7 C         140.5521  140.9411  165.1870 C.3     1  UNL1        0.1202
      8 N         139.4275  140.3418  165.9782 N.am    1  UNL1       -0.2711
      9 C         139.5345  139.7457  167.3505 C.2     1  UNL1        0.2306
     10 O         138.3167  139.1812  168.0201 O.2     1  UNL1       -0.2745
     11 C         138.1769  140.4432  165.1560 C.3     1  UNL1        0.1202
     12 C         139.9553  144.4519  159.8551 C.2     1  UNL1        0.0598
     13 C         140.4525  143.1153  160.3201 C.2     1  UNL1        0.0047
     14 O         139.8566  145.2199  157.3751 O.2     1  UNL1       -0.2681
     15 C         140.5966  145.1220  158.6762 C.2     1  UNL1        0.2679
     16 N         141.9778  145.6941  158.7984 N.am    1  UNL1       -0.1934
     17 O         142.6191  146.3641  157.6195 O.3     1  UNL1       -0.2949
     18 H         142.4635  145.6297  159.6524 H       1  UNL1        0.1825
     19 H         142.0107  146.3417  156.8644 H       1  UNL1        0.2414
     20 C         140.8593  139.7142  168.0533 C.3     1  UNL1        0.1116
     21 C         141.3535  140.9314  168.7772 C.ar    1  UNL1       -0.0131
     22 C         142.8010  141.0438  169.1542 C.ar    1  UNL1       -0.0038
     23 C         143.2951  142.2610  169.8781 C.ar    1  UNL1       -0.0003
     24 C         142.3418  143.3660  170.2250 C.ar    1  UNL1       -0.0000
     25 C         140.8943  143.2536  169.8480 C.ar    1  UNL1       -0.0003
     26 C         140.4001  142.0363  169.1240 C.ar    1  UNL1       -0.0038
@<TRIPOS>BOND
     1    14    15    2
     2    15    12    1
     3    12    13    2
     4    13     1    1
     5     1     2   ar
     6     2     3   ar
     7     3     4   ar
     8     4     5   ar
     9     5     6   ar
    10     5     7    1
    11     7     8    1
    12     8     9   am
    13     9    10    2
    14     9    20    1
    15    20    21    1
    16    21    22   ar
    17    22    23   ar
    18    23    24   ar
    19    24    25   ar
    20    25    26   ar
    21     8    11    1
    22    15    16   am
    23    16    17    1
    24     6     1   ar
    25    26    21   ar
    26    11     4    1
    27    16    18    1
    28    17    19    1
@<TRIPOS>MOLECULE
*****
 26 28 0 0 0
SMALL
GASTEIGER

@<TRIPOS>ATOM
      1 C         143.4451  142.0646  169.4950 C.ar    1  UNL1       -0.0001
      2 C         143.1504  140.6856  170.0063 C.ar    1  UNL1       -0.0003
      3 C         142.5253  139.6671  169.0996 C.ar    1  UNL1       -0.0029
      4 C         142.1951  140.0277  167.6815 C.ar    1  UNL1       -0.0047
      5 C         142.4898  141.4067  167.1702 C.ar    1  UNL1       -0.0047
      6 C         143.1148  142.4251  168.0769 C.ar    1  UNL1       -0.0029
      7 C         142.0563  141.4716  165.7356 C.3     1  UNL1        0.1202
      8 N         141.4937  140.1327  165.3604 N.am    1  UNL1       -0.2711
      9 C         140.9421  139.7529  164.0181 C.2     1  UNL1        0.2306
     10 O         140.4111  138.3687  163.7899 O.2     1  UNL1       -0.2745
     11 C         141.5794  139.2403  166.5630 C.3     1  UNL1        0.1202
     12 C         145.5031  143.4814  170.2071 C.2     1  UNL1        0.0598
     13 C         144.0701  143.0830  170.4017 C.2     1  UNL1        0.0047
     14 O         145.3119  145.6495  171.6259 O.2     1  UNL1       -0.2681
     15 C         146.1281  144.4999  171.1138 C.2     1  UNL1        0.2679
     16 N         147.5693  144.3686  171.5085 N.am    1  UNL1       -0.1934
     17 O         148.1944  145.3871  172.4152 O.3     1  UNL1       -0.2949
     18 H         148.1050  143.6141  171.1724 H       1  UNL1        0.1825
     19 H         147.5345  146.0575  172.6520 H       1  UNL1        0.2414
     20 C         140.9216  140.7572  162.9042 C.3     1  UNL1        0.1116
     21 C         139.9256  141.8786  162.9237 C.ar    1  UNL1       -0.0131
     22 C         138.4993  141.6085  163.3015 C.ar    1  UNL1       -0.0038
     23 C         137.5033  142.7299  163.3210 C.ar    1  UNL1       -0.0003
     24 C         137.9337  144.1216  162.9627 C.ar    1  UNL1       -0.0000
     25 C         139.3600  144.3917  162.5850 C.ar    1  UNL1       -0.0003
     26 C         140.3559  143.2702  162.5655 C.ar    1  UNL1       -0.0038
@<TRIPOS>BOND
     1    14    15    2
     2    15    12    1
     3    12    13    2
     4    13     1    1
     5     1     2   ar
     6     2     3   ar
     7     3     4   ar
     8     4     5   ar
     9     5     6   ar
    10     5     7    1
    11     7     8    1
    12     8     9   am
    13     9    10    2
    14     9    20    1
    15    20    21    1
    16    21    22   ar
    17    22    23   ar
    18    23    24   ar
    19    24    25   ar
    20    25    26   ar
    21     8    11    1
    22    15    16   am
    23    16    17    1
    24     6     1   ar
    25    26    21   ar
    26    11     4    1
    27    16    18    1
    28    17    19    1
