@<TRIPOS>MOLECULE
*****
 34 37 0 0 0
SMALL
GASTEIGER

@<TRIPOS>ATOM
      1 C         142.1451  140.0454  165.1832 C.3     1  UNL1        0.1518
      2 N         143.4591  140.4623  164.5920 N.2     1  UNL1       -0.2172
      3 C         144.0352  140.1114  163.2522 C.2     1  UNL1        0.2843
      4 N         143.4397  139.2568  162.1728 N.pl3   1  UNL1       -0.2584
      5 C         144.2731  139.0957  160.9362 C.3     1  UNL1        0.1169
      6 C         142.1209  138.5422  162.1666 C.3     1  UNL1        0.1216
      7 C         141.0719  138.5056  163.2382 C.ar    1  UNL1       -0.0041
      8 C         139.8972  137.6685  162.8268 C.ar    1  UNL1       -0.0029
      9 C         138.7332  137.5004  163.7578 C.ar    1  UNL1       -0.0003
     10 C         138.7440  138.1694  165.1003 C.ar    1  UNL1       -0.0003
     11 C         139.9187  139.0065  165.5118 C.ar    1  UNL1       -0.0023
     12 C         141.0826  139.1745  164.5807 C.ar    1  UNL1        0.0018
     13 C         141.2751  141.6146  169.3100 C.ar    1  UNL1        0.0252
     14 C         141.9811  140.3022  169.1401 C.ar    1  UNL1        0.0059
     15 C         142.2711  139.7790  167.7646 C.ar    1  UNL1       -0.0016
     16 C         141.8551  140.5684  166.5588 C.ar    1  UNL1        0.0041
     17 C         141.1491  141.8810  166.7287 C.ar    1  UNL1       -0.0016
     18 C         140.8591  142.4040  168.1043 C.ar    1  UNL1        0.0059
     19 C         139.7657  142.9773  170.9270 C.3     1  UNL1        0.0742
     20 S         140.9851  142.1377  170.6856 S.3     1  UNL1       -0.1127
     21 O         145.3855  140.6917  162.9522 O.2     1  UNL1       -0.4449
     22 C         145.5070  142.1212  162.5143 C.3     1  UNL1        0.2350
     23 C         144.3193  143.0338  162.5948 C.ar    1  UNL1        0.0213
     24 C         144.1037  143.8783  163.8156 C.ar    1  UNL1        0.0006
     25 C         142.9160  144.7909  163.8961 C.ar    1  UNL1        0.0156
     26 C         141.9438  144.8590  162.7557 C.ar    1  UNL1        0.0644
     27 C         142.1594  144.0145  161.5349 C.ar    1  UNL1        0.0156
     28 C         143.3472  143.1019  161.4545 C.ar    1  UNL1        0.0006
     29 N         140.7561  145.7716  162.8362 N.pl3   1  UNL1       -0.2187
     30 H         140.8853  146.7475  162.8515 H       1  UNL1        0.1734
     31 S         139.3715  145.1973  162.8932 S.O2    1  UNL1        0.0558
     32 C         137.9870  144.6231  162.9504 C.3     1  UNL1        0.1996
     33 O         139.1452  145.6011  161.4665 O.2     1  UNL1       -0.1544
     34 O         139.5979  144.7936  164.3200 O.2     1  UNL1       -0.1544
@<TRIPOS>BOND
     1    19    20    1
     2    20    13    1
     3    13    14   ar
     4    14    15   ar
     5    15    16   ar
     6     1    16    1
     7     1     2    1
     8     2     3    2
     9     3    21    1
    10    21    22    1
    11    22    23    1
    12    23    24   ar
    13    24    25   ar
    14    25    26   ar
    15    26    29    1
    16    29    31    1
    17    31    32    1
    18    31    33    2
    19    31    34    2
    20    26    27   ar
    21    27    28   ar
    22     3     4    1
    23     4     5    1
    24     4     6    1
    25     6     7    1
    26     7     8   ar
    27     8     9   ar
    28     9    10   ar
    29    10    11   ar
    30    11    12   ar
    31    16    17   ar
    32    17    18   ar
    33    18    13   ar
    34    12     1    1
    35    28    23   ar
    36    12     7   ar
    37    29    30    1
@<TRIPOS>MOLECULE
*****
 34 37 0 0 0
SMALL
GASTEIGER

@<TRIPOS>ATOM
      1 C         142.1081  142.8323  165.2054 C.3     1  UNL1        0.1518
      2 N         140.8436  143.6273  165.0676 N.2     1  UNL1       -0.2172
      3 C         140.4080  144.5016  163.9292 C.2     1  UNL1        0.2843
      4 N         141.1293  144.7969  162.6476 N.pl3   1  UNL1       -0.2584
      5 C         140.4220  145.7204  161.7006 C.3     1  UNL1        0.1169
      6 C         142.4643  144.2907  162.1878 C.3     1  UNL1        0.1216
      7 C         143.4079  143.3644  162.8960 C.ar    1  UNL1       -0.0041
      8 C         144.6417  143.1110  162.0815 C.ar    1  UNL1       -0.0029
      9 C         145.7170  142.2086  162.6100 C.ar    1  UNL1       -0.0003
     10 C         145.5585  141.5596  163.9530 C.ar    1  UNL1       -0.0003
     11 C         144.3247  141.8129  164.7675 C.ar    1  UNL1       -0.0023
     12 C         143.2494  142.7153  164.2390 C.ar    1  UNL1        0.0018
     13 C         142.5345  140.4885  169.0231 C.ar    1  UNL1        0.0252
     14 C         141.7398  139.9257  167.8823 C.ar    1  UNL1        0.0059
     15 C         141.5977  140.7068  166.6097 C.ar    1  UNL1       -0.0016
     16 C         142.2503  142.0511  166.4780 C.ar    1  UNL1        0.0041
     17 C         143.0450  142.6140  167.6189 C.ar    1  UNL1       -0.0016
     18 C         143.1871  141.8327  168.8914 C.ar    1  UNL1        0.0059
     19 C         142.8887  138.2232  170.2449 C.3     1  UNL1        0.0742
     20 S         142.6767  139.7073  170.2957 S.3     1  UNL1       -0.1127
     21 O         139.0748  145.1689  164.0943 O.2     1  UNL1       -0.4449
     22 C         137.8131  144.3901  163.8673 C.3     1  UNL1        0.2350
     23 C         137.8826  142.9269  163.5444 C.ar    1  UNL1        0.0213
     24 C         137.8581  142.4723  162.1152 C.ar    1  UNL1        0.0006
     25 C         137.9276  141.0091  161.7923 C.ar    1  UNL1        0.0156
     26 C         138.0217  140.0006  162.8986 C.ar    1  UNL1        0.0644
     27 C         138.0463  140.4552  164.3278 C.ar    1  UNL1        0.0156
     28 C         137.9767  141.9184  164.6507 C.ar    1  UNL1        0.0006
     29 N         138.0913  138.5374  162.5758 N.pl3   1  UNL1       -0.2187
     30 H         137.3067  138.0790  162.1970 H       1  UNL1        0.1734
     31 S         139.3564  137.7726  162.8300 S.O2    1  UNL1        0.0558
     32 C         140.6215  137.0078  163.0842 C.3     1  UNL1        0.1996
     33 O         139.8543  138.1420  161.4641 O.2     1  UNL1       -0.1544
     34 O         138.8586  137.4031  164.1958 O.2     1  UNL1       -0.1544
@<TRIPOS>BOND
     1    19    20    1
     2    20    13    1
     3    13    14   ar
     4    14    15   ar
     5    15    16   ar
     6     1    16    1
     7     1     2    1
     8     2     3    2
     9     3    21    1
    10    21    22    1
    11    22    23    1
    12    23    24   ar
    13    24    25   ar
    14    25    26   ar
    15    26    29    1
    16    29    31    1
    17    31    32    1
    18    31    33    2
    19    31    34    2
    20    26    27   ar
    21    27    28   ar
    22     3     4    1
    23     4     5    1
    24     4     6    1
    25     6     7    1
    26     7     8   ar
    27     8     9   ar
    28     9    10   ar
    29    10    11   ar
    30    11    12   ar
    31    16    17   ar
    32    17    18   ar
    33    18    13   ar
    34    12     1    1
    35    28    23   ar
    36    12     7   ar
    37    29    30    1
@<TRIPOS>MOLECULE
*****
 34 37 0 0 0
SMALL
GASTEIGER

@<TRIPOS>ATOM
      1 C         142.0477  139.7711  164.6729 C.3     1  UNL1        0.1518
      2 N         140.9219  138.9599  164.1032 N.2     1  UNL1       -0.2172
      3 C         140.6933  138.5481  162.6790 C.2     1  UNL1        0.2843
      4 N         141.5339  138.8459  161.4729 N.pl3   1  UNL1       -0.2584
      5 C         141.0311  138.2866  160.1750 C.3     1  UNL1        0.1169
      6 C         142.8107  139.6289  161.3931 C.3     1  UNL1        0.1216
      7 C         143.5624  140.3076  162.4995 C.ar    1  UNL1       -0.0041
      8 C         144.7993  140.9841  161.9873 C.ar    1  UNL1       -0.0029
      9 C         145.6966  141.7238  162.9347 C.ar    1  UNL1       -0.0003
     10 C         145.3571  141.7871  164.3944 C.ar    1  UNL1       -0.0003
     11 C         144.1202  141.1106  164.9066 C.ar    1  UNL1       -0.0023
     12 C         143.2229  140.3709  163.9592 C.ar    1  UNL1        0.0018
     13 C         141.8771  140.5020  169.1099 C.ar    1  UNL1        0.0252
     14 C         141.1325  141.4050  168.1719 C.ar    1  UNL1        0.0059
     15 C         141.1893  141.1614  166.6929 C.ar    1  UNL1       -0.0016
     16 C         141.9909  140.0147  166.1519 C.ar    1  UNL1        0.0041
     17 C         142.7356  139.1116  167.0899 C.ar    1  UNL1       -0.0016
     18 C         142.6787  139.3552  168.5689 C.ar    1  UNL1        0.0059
     19 C         140.8410  141.7340  171.1490 C.3     1  UNL1        0.0742
     20 S         141.8203  140.7455  170.5889 S.3     1  UNL1       -0.1127
     21 O         139.4611  137.7305  162.4278 O.2     1  UNL1       -0.4449
     22 C         138.1389  138.4093  162.2252 C.3     1  UNL1        0.2350
     23 C         138.0550  139.9069  162.2383 C.ar    1  UNL1        0.0213
     24 C         138.3058  140.6832  160.9795 C.ar    1  UNL1        0.0006
     25 C         138.2218  142.1808  160.9926 C.ar    1  UNL1        0.0156
     26 C         137.8870  142.9021  162.2645 C.ar    1  UNL1        0.0644
     27 C         137.6362  142.1258  163.5232 C.ar    1  UNL1        0.0156
     28 C         137.7202  140.6282  163.5101 C.ar    1  UNL1        0.0006
     29 N         137.8030  144.3997  162.2775 N.pl3   1  UNL1       -0.2187
     30 H         136.9328  144.8449  162.1611 H       1  UNL1        0.1734
     31 S         139.0451  145.2189  162.4681 S.O2    1  UNL1        0.0558
     32 C         140.2872  146.0380  162.6586 C.3     1  UNL1        0.1996
     33 O         138.8616  145.1513  163.9553 O.2     1  UNL1       -0.1544
     34 O         139.2287  145.2864  160.9809 O.2     1  UNL1       -0.1544
@<TRIPOS>BOND
     1    19    20    1
     2    20    13    1
     3    13    14   ar
     4    14    15   ar
     5    15    16   ar
     6     1    16    1
     7     1     2    1
     8     2     3    2
     9     3    21    1
    10    21    22    1
    11    22    23    1
    12    23    24   ar
    13    24    25   ar
    14    25    26   ar
    15    26    29    1
    16    29    31    1
    17    31    32    1
    18    31    33    2
    19    31    34    2
    20    26    27   ar
    21    27    28   ar
    22     3     4    1
    23     4     5    1
    24     4     6    1
    25     6     7    1
    26     7     8   ar
    27     8     9   ar
    28     9    10   ar
    29    10    11   ar
    30    11    12   ar
    31    16    17   ar
    32    17    18   ar
    33    18    13   ar
    34    12     1    1
    35    28    23   ar
    36    12     7   ar
    37    29    30    1
@<TRIPOS>MOLECULE
*****
 34 37 0 0 0
SMALL
GASTEIGER

@<TRIPOS>ATOM
      1 C         139.5466  140.8072  165.5370 C.3     1  UNL1        0.1518
      2 N         139.6430  139.3545  165.1760 N.2     1  UNL1       -0.2172
      3 C         139.1016  138.6538  163.9653 C.2     1  UNL1        0.2843
      4 N         138.3301  139.2326  162.8165 N.pl3   1  UNL1       -0.2584
      5 C         137.9258  138.2604  161.7482 C.3     1  UNL1        0.1169
      6 C         137.9094  140.6553  162.5948 C.3     1  UNL1        0.1216
      7 C         138.1563  141.8504  163.4670 C.ar    1  UNL1       -0.0041
      8 C         137.5623  143.0936  162.8742 C.ar    1  UNL1       -0.0029
      9 C         137.6969  144.4045  163.5908 C.ar    1  UNL1       -0.0003
     10 C         138.4255  144.4721  164.9002 C.ar    1  UNL1       -0.0003
     11 C         139.0195  143.2289  165.4930 C.ar    1  UNL1       -0.0023
     12 C         138.8849  141.9180  164.7764 C.ar    1  UNL1        0.0018
     13 C         141.5005  141.9894  169.4144 C.ar    1  UNL1        0.0252
     14 C         142.1195  142.3929  168.1091 C.ar    1  UNL1        0.0059
     15 C         141.4683  141.9988  166.8166 C.ar    1  UNL1       -0.0016
     16 C         140.1979  141.2013  166.8294 C.ar    1  UNL1        0.0041
     17 C         139.5788  140.7978  168.1349 C.ar    1  UNL1       -0.0016
     18 C         140.2302  141.1919  169.4274 C.ar    1  UNL1        0.0059
     19 C         143.3394  143.2997  170.6995 C.3     1  UNL1        0.0742
     20 S         142.1518  142.3835  170.7069 S.3     1  UNL1       -0.1127
     21 O         139.3668  137.1791  163.8938 O.2     1  UNL1       -0.4449
     22 C         140.7768  136.6684  163.9243 C.3     1  UNL1        0.2350
     23 C         141.9247  137.6285  163.8226 C.ar    1  UNL1        0.0213
     24 C         142.5924  138.1338  165.0673 C.ar    1  UNL1        0.0006
     25 C         143.7403  139.0940  164.9656 C.ar    1  UNL1        0.0156
     26 C         144.2206  139.5489  163.6193 C.ar    1  UNL1        0.0644
     27 C         143.5529  139.0437  162.3747 C.ar    1  UNL1        0.0156
     28 C         142.4050  138.0835  162.4764 C.ar    1  UNL1        0.0006
     29 N         145.3685  140.5091  163.5176 N.pl3   1  UNL1       -0.2187
     30 H         146.2909  140.1886  163.6425 H       1  UNL1        0.1734
     31 S         145.1109  141.9578  163.2257 S.O2    1  UNL1        0.0558
     32 C         144.8534  143.4063  162.9338 C.3     1  UNL1        0.1996
     33 O         145.4040  141.7174  161.7744 O.2     1  UNL1       -0.1544
     34 O         144.8179  142.1981  164.6770 O.2     1  UNL1       -0.1544
@<TRIPOS>BOND
     1    19    20    1
     2    20    13    1
     3    13    14   ar
     4    14    15   ar
     5    15    16   ar
     6     1    16    1
     7     1     2    1
     8     2     3    2
     9     3    21    1
    10    21    22    1
    11    22    23    1
    12    23    24   ar
    13    24    25   ar
    14    25    26   ar
    15    26    29    1
    16    29    31    1
    17    31    32    1
    18    31    33    2
    19    31    34    2
    20    26    27   ar
    21    27    28   ar
    22     3     4    1
    23     4     5    1
    24     4     6    1
    25     6     7    1
    26     7     8   ar
    27     8     9   ar
    28     9    10   ar
    29    10    11   ar
    30    11    12   ar
    31    16    17   ar
    32    17    18   ar
    33    18    13   ar
    34    12     1    1
    35    28    23   ar
    36    12     7   ar
    37    29    30    1
@<TRIPOS>MOLECULE
*****
 34 37 0 0 0
SMALL
GASTEIGER

@<TRIPOS>ATOM
      1 C         139.3293  140.9465  161.8089 C.3     1  UNL1        0.1518
      2 N         139.1074  142.4167  161.6107 N.2     1  UNL1       -0.2172
      3 C         138.5658  143.4204  162.5851 C.2     1  UNL1        0.2843
      4 N         138.1124  143.2018  163.9982 N.pl3   1  UNL1       -0.2584
      5 C         137.6173  144.4206  164.7188 C.3     1  UNL1        0.1169
      6 C         138.0886  141.9255  164.7858 C.3     1  UNL1        0.1216
      7 C         138.5124  140.5525  164.3550 C.ar    1  UNL1       -0.0041
      8 C         138.3243  139.5505  165.4553 C.ar    1  UNL1       -0.0029
      9 C         138.6884  138.1129  165.2307 C.ar    1  UNL1       -0.0003
     10 C         139.2406  137.6772  163.9058 C.ar    1  UNL1       -0.0003
     11 C         139.4286  138.6792  162.8055 C.ar    1  UNL1       -0.0023
     12 C         139.0645  140.1168  163.0302 C.ar    1  UNL1        0.0018
     13 C         141.0121  138.7319  158.2714 C.ar    1  UNL1        0.0252
     14 C         139.5283  138.7906  158.4828 C.ar    1  UNL1        0.0059
     15 C         138.9673  139.5288  159.6619 C.ar    1  UNL1       -0.0016
     16 C         139.8902  140.2083  160.6297 C.ar    1  UNL1        0.0041
     17 C         141.3741  140.1496  160.4182 C.ar    1  UNL1       -0.0016
     18 C         141.9350  139.4114  159.2391 C.ar    1  UNL1        0.0059
     19 C         142.6124  136.9318  157.2976 C.3     1  UNL1        0.0742
     20 S         141.5731  137.9937  157.0922 S.3     1  UNL1       -0.1127
     21 O         138.4641  144.8290  162.0795 O.2     1  UNL1       -0.4449
     22 C         139.7043  145.6542  161.9043 C.3     1  UNL1        0.2350
     23 C         141.0548  145.0244  162.0759 C.ar    1  UNL1        0.0213
     24 C         141.7978  145.1835  163.3693 C.ar    1  UNL1        0.0006
     25 C         143.1482  144.5536  163.5408 C.ar    1  UNL1        0.0156
     26 C         143.7558  143.7646  162.4190 C.ar    1  UNL1        0.0644
     27 C         143.0129  143.6055  161.1257 C.ar    1  UNL1        0.0156
     28 C         141.6624  144.2354  160.9541 C.ar    1  UNL1        0.0006
     29 N         145.1063  143.1347  162.5905 N.pl3   1  UNL1       -0.2187
     30 H         145.9089  143.5899  162.2473 H       1  UNL1        0.1734
     31 S         145.2338  141.8113  163.2851 S.O2    1  UNL1        0.0558
     32 C         145.3614  140.4879  163.9796 C.3     1  UNL1        0.1996
     33 O         145.3476  142.5149  164.6049 O.2     1  UNL1       -0.1544
     34 O         145.1201  141.1077  161.9653 O.2     1  UNL1       -0.1544
@<TRIPOS>BOND
     1    19    20    1
     2    20    13    1
     3    13    14   ar
     4    14    15   ar
     5    15    16   ar
     6     1    16    1
     7     1     2    1
     8     2     3    2
     9     3    21    1
    10    21    22    1
    11    22    23    1
    12    23    24   ar
    13    24    25   ar
    14    25    26   ar
    15    26    29    1
    16    29    31    1
    17    31    32    1
    18    31    33    2
    19    31    34    2
    20    26    27   ar
    21    27    28   ar
    22     3     4    1
    23     4     5    1
    24     4     6    1
    25     6     7    1
    26     7     8   ar
    27     8     9   ar
    28     9    10   ar
    29    10    11   ar
    30    11    12   ar
    31    16    17   ar
    32    17    18   ar
    33    18    13   ar
    34    12     1    1
    35    28    23   ar
    36    12     7   ar
    37    29    30    1
@<TRIPOS>MOLECULE
*****
 34 37 0 0 0
SMALL
GASTEIGER

@<TRIPOS>ATOM
      1 C         139.9737  141.0744  165.3925 C.3     1  UNL1        0.1518
      2 N         140.0592  139.6189  165.0405 N.2     1  UNL1       -0.2172
      3 C         139.3889  138.8880  163.9150 C.2     1  UNL1        0.2843
      4 N         138.4677  139.4321  162.8637 N.pl3   1  UNL1       -0.2584
      5 C         137.9575  138.4350  161.8661 C.3     1  UNL1        0.1169
      6 C         137.9892  140.8416  162.6783 C.3     1  UNL1        0.1216
      7 C         138.3137  142.0551  163.4982 C.ar    1  UNL1       -0.0041
      8 C         137.6215  143.2757  162.9682 C.ar    1  UNL1       -0.0029
      9 C         137.8127  144.6000  163.6462 C.ar    1  UNL1       -0.0003
     10 C         138.6959  144.7036  164.8542 C.ar    1  UNL1       -0.0003
     11 C         139.3880  143.4830  165.3842 C.ar    1  UNL1       -0.0023
     12 C         139.1969  142.1587  164.7062 C.ar    1  UNL1        0.0018
     13 C         142.3639  142.3585  168.9826 C.ar    1  UNL1        0.0252
     14 C         140.9574  141.8667  169.1548 C.ar    1  UNL1        0.0059
     15 C         140.1606  141.4387  167.9582 C.ar    1  UNL1       -0.0016
     16 C         140.7704  141.5024  166.5892 C.ar    1  UNL1        0.0041
     17 C         142.1771  141.9942  166.4169 C.ar    1  UNL1       -0.0016
     18 C         142.9738  142.4222  167.6136 C.ar    1  UNL1        0.0059
     19 C         144.6574  142.6901  170.1571 C.3     1  UNL1        0.0742
     20 S         143.1606  142.7865  170.1792 S.3     1  UNL1       -0.1127
     21 O         139.6782  137.4186  163.8296 O.2     1  UNL1       -0.4449
     22 C         141.0681  136.9443  163.5243 C.3     1  UNL1        0.2350
     23 C         141.9278  137.7104  162.5630 C.ar    1  UNL1        0.0213
     24 C         143.1157  138.4763  163.0654 C.ar    1  UNL1        0.0006
     25 C         143.9754  139.2424  162.1041 C.ar    1  UNL1        0.0156
     26 C         143.6471  139.2426  160.6404 C.ar    1  UNL1        0.0644
     27 C         142.4592  138.4767  160.1381 C.ar    1  UNL1        0.0156
     28 C         141.5996  137.7107  161.0994 C.ar    1  UNL1        0.0006
     29 N         144.5068  140.0086  159.6791 N.pl3   1  UNL1       -0.2187
     30 H         145.4876  139.9594  159.7488 H       1  UNL1        0.1734
     31 S         143.8721  140.8498  158.6115 S.O2    1  UNL1        0.0558
     32 C         143.2374  141.6909  157.5440 C.3     1  UNL1        0.1996
     33 O         143.3407  141.7807  159.6608 O.2     1  UNL1       -0.1544
     34 O         144.4035  139.9189  157.5622 O.2     1  UNL1       -0.1544
@<TRIPOS>BOND
     1    19    20    1
     2    20    13    1
     3    13    14   ar
     4    14    15   ar
     5    15    16   ar
     6     1    16    1
     7     1     2    1
     8     2     3    2
     9     3    21    1
    10    21    22    1
    11    22    23    1
    12    23    24   ar
    13    24    25   ar
    14    25    26   ar
    15    26    29    1
    16    29    31    1
    17    31    32    1
    18    31    33    2
    19    31    34    2
    20    26    27   ar
    21    27    28   ar
    22     3     4    1
    23     4     5    1
    24     4     6    1
    25     6     7    1
    26     7     8   ar
    27     8     9   ar
    28     9    10   ar
    29    10    11   ar
    30    11    12   ar
    31    16    17   ar
    32    17    18   ar
    33    18    13   ar
    34    12     1    1
    35    28    23   ar
    36    12     7   ar
    37    29    30    1
@<TRIPOS>MOLECULE
*****
 34 37 0 0 0
SMALL
GASTEIGER

@<TRIPOS>ATOM
      1 C         139.3183  140.5892  165.0933 C.3     1  UNL1        0.1518
      2 N         138.4624  141.6722  164.5062 N.2     1  UNL1       -0.2172
      3 C         137.9532  141.8034  163.1013 C.2     1  UNL1        0.2843
      4 N         138.1739  140.8841  161.9368 N.pl3   1  UNL1       -0.2584
      5 C         137.5243  141.2970  160.6494 C.3     1  UNL1        0.1169
      6 C         138.9585  139.6066  161.8895 C.3     1  UNL1        0.1216
      7 C         139.7161  138.9327  162.9949 C.ar    1  UNL1       -0.0041
      8 C         140.3646  137.6656  162.5217 C.ar    1  UNL1       -0.0029
      9 C         141.1732  136.8359  163.4744 C.ar    1  UNL1       -0.0003
     10 C         141.3333  137.2733  164.9003 C.ar    1  UNL1       -0.0003
     11 C         140.6848  138.5403  165.3735 C.ar    1  UNL1       -0.0023
     12 C         139.8762  139.3700  164.4208 C.ar    1  UNL1        0.0018
     13 C         140.3482  141.0602  169.4485 C.ar    1  UNL1        0.0252
     14 C         139.3557  140.0201  169.0208 C.ar    1  UNL1        0.0059
     15 C         139.0123  139.8630  167.5691 C.ar    1  UNL1       -0.0016
     16 C         139.6616  140.7462  166.5450 C.ar    1  UNL1        0.0041
     17 C         140.6541  141.7864  166.9728 C.ar    1  UNL1       -0.0016
     18 C         140.9974  141.9434  168.4245 C.ar    1  UNL1        0.0059
     19 C         141.9614  141.9084  171.2999 C.3     1  UNL1        0.0742
     20 S         140.6915  141.2172  170.9002 S.3     1  UNL1       -0.1127
     21 O         137.1119  143.0140  162.8245 O.2     1  UNL1       -0.4449
     22 C         137.7556  144.3637  162.7069 C.3     1  UNL1        0.2350
     23 C         139.2504  144.4805  162.6629 C.ar    1  UNL1        0.0213
     24 C         139.9815  144.2680  161.3704 C.ar    1  UNL1        0.0006
     25 C         141.4763  144.3848  161.3264 C.ar    1  UNL1        0.0156
     26 C         142.2400  144.7141  162.5748 C.ar    1  UNL1        0.0644
     27 C         141.5089  144.9266  163.8671 C.ar    1  UNL1        0.0156
     28 C         140.0141  144.8098  163.9112 C.ar    1  UNL1        0.0006
     29 N         143.7348  144.8309  162.5307 N.pl3   1  UNL1       -0.2187
     30 H         144.1562  145.7116  162.4043 H       1  UNL1        0.1734
     31 S         144.5875  143.6058  162.6792 S.O2    1  UNL1        0.0558
     32 C         145.4401  142.3807  162.8278 C.3     1  UNL1        0.1996
     33 O         144.6350  143.4579  161.1873 O.2     1  UNL1       -0.1544
     34 O         144.5399  143.7536  164.1712 O.2     1  UNL1       -0.1544
@<TRIPOS>BOND
     1    19    20    1
     2    20    13    1
     3    13    14   ar
     4    14    15   ar
     5    15    16   ar
     6     1    16    1
     7     1     2    1
     8     2     3    2
     9     3    21    1
    10    21    22    1
    11    22    23    1
    12    23    24   ar
    13    24    25   ar
    14    25    26   ar
    15    26    29    1
    16    29    31    1
    17    31    32    1
    18    31    33    2
    19    31    34    2
    20    26    27   ar
    21    27    28   ar
    22     3     4    1
    23     4     5    1
    24     4     6    1
    25     6     7    1
    26     7     8   ar
    27     8     9   ar
    28     9    10   ar
    29    10    11   ar
    30    11    12   ar
    31    16    17   ar
    32    17    18   ar
    33    18    13   ar
    34    12     1    1
    35    28    23   ar
    36    12     7   ar
    37    29    30    1
@<TRIPOS>MOLECULE
*****
 34 37 0 0 0
SMALL
GASTEIGER

@<TRIPOS>ATOM
      1 C         141.4191  140.8583  167.1897 C.3     1  UNL1        0.1518
      2 N         140.1546  140.0938  166.9314 N.2     1  UNL1       -0.2172
      3 C         139.0638  139.7369  167.8973 C.2     1  UNL1        0.2843
      4 N         138.9680  140.0563  169.3598 N.pl3   1  UNL1       -0.2584
      5 C         137.7383  139.5541  170.0565 C.3     1  UNL1        0.1169
      6 C         139.9396  140.8114  170.2176 C.3     1  UNL1        0.1216
      7 C         141.2467  141.4337  169.8250 C.ar    1  UNL1       -0.0041
      8 C         141.9105  142.0982  170.9945 C.ar    1  UNL1       -0.0029
      9 C         143.2329  142.7835  170.8163 C.ar    1  UNL1       -0.0003
     10 C         143.8913  142.8043  169.4688 C.ar    1  UNL1       -0.0003
     11 C         143.2275  142.1399  168.2993 C.ar    1  UNL1       -0.0023
     12 C         141.9051  141.4546  168.4774 C.ar    1  UNL1        0.0018
     13 C         144.1105  141.4395  163.6304 C.ar    1  UNL1        0.0252
     14 C         143.0458  142.4500  163.9385 C.ar    1  UNL1        0.0059
     15 C         142.1486  142.2564  165.1249 C.ar    1  UNL1       -0.0016
     16 C         142.3162  141.0520  166.0032 C.ar    1  UNL1        0.0041
     17 C         143.3810  140.0414  165.6951 C.ar    1  UNL1       -0.0016
     18 C         144.2782  140.2351  164.5087 C.ar    1  UNL1        0.0059
     19 C         144.5942  142.5527  161.3333 C.3     1  UNL1        0.0742
     20 S         145.0077  141.6332  162.4440 S.3     1  UNL1       -0.1127
     21 O         137.9170  138.9576  167.3249 O.2     1  UNL1       -0.4449
     22 C         138.1514  137.9983  166.1959 C.3     1  UNL1        0.2350
     23 C         139.0715  138.3731  165.0720 C.ar    1  UNL1        0.0213
     24 C         140.2981  137.5531  164.8018 C.ar    1  UNL1        0.0006
     25 C         141.2182  137.9279  163.6779 C.ar    1  UNL1        0.0156
     26 C         140.9116  139.1227  162.8244 C.ar    1  UNL1        0.0644
     27 C         139.6850  139.9426  163.0946 C.ar    1  UNL1        0.0156
     28 C         138.7650  139.5678  164.2185 C.ar    1  UNL1        0.0006
     29 N         141.8317  139.4975  161.7005 N.pl3   1  UNL1       -0.2187
     30 H         142.1032  140.4359  161.5787 H       1  UNL1        0.1734
     31 S         142.3380  138.4423  160.7622 S.O2    1  UNL1        0.0558
     32 C         142.8444  137.3873  159.8239 C.3     1  UNL1        0.1996
     33 O         140.9773  138.3437  160.1388 O.2     1  UNL1       -0.1544
     34 O         143.6987  138.5410  161.3855 O.2     1  UNL1       -0.1544
@<TRIPOS>BOND
     1    19    20    1
     2    20    13    1
     3    13    14   ar
     4    14    15   ar
     5    15    16   ar
     6     1    16    1
     7     1     2    1
     8     2     3    2
     9     3    21    1
    10    21    22    1
    11    22    23    1
    12    23    24   ar
    13    24    25   ar
    14    25    26   ar
    15    26    29    1
    16    29    31    1
    17    31    32    1
    18    31    33    2
    19    31    34    2
    20    26    27   ar
    21    27    28   ar
    22     3     4    1
    23     4     5    1
    24     4     6    1
    25     6     7    1
    26     7     8   ar
    27     8     9   ar
    28     9    10   ar
    29    10    11   ar
    30    11    12   ar
    31    16    17   ar
    32    17    18   ar
    33    18    13   ar
    34    12     1    1
    35    28    23   ar
    36    12     7   ar
    37    29    30    1
@<TRIPOS>MOLECULE
*****
 34 37 0 0 0
SMALL
GASTEIGER

@<TRIPOS>ATOM
      1 C         143.0970  142.8942  160.7937 C.3     1  UNL1        0.1518
      2 N         144.1953  142.2676  161.6007 N.2     1  UNL1       -0.2172
      3 C         144.5723  142.5290  163.0288 C.2     1  UNL1        0.2843
      4 N         143.9442  143.4814  164.0027 N.pl3   1  UNL1       -0.2584
      5 C         144.5574  143.5115  165.3712 C.3     1  UNL1        0.1169
      6 C         142.7839  144.4077  163.7889 C.3     1  UNL1        0.1216
      7 C         141.9651  144.6104  162.5485 C.ar    1  UNL1       -0.0041
      8 C         140.8923  145.6368  162.7616 C.ar    1  UNL1       -0.0029
      9 C         139.9589  145.9897  161.6418 C.ar    1  UNL1       -0.0003
     10 C         140.0982  145.3161  160.3088 C.ar    1  UNL1       -0.0003
     11 C         141.1710  144.2897  160.0956 C.ar    1  UNL1       -0.0023
     12 C         142.1044  143.9368  161.2155 C.ar    1  UNL1        0.0018
     13 C         142.7312  141.4558  156.5455 C.ar    1  UNL1        0.0252
     14 C         142.0470  140.7088  157.6517 C.ar    1  UNL1        0.0059
     15 C         142.1689  141.1882  159.0678 C.ar    1  UNL1       -0.0016
     16 C         142.9751  142.4147  159.3776 C.ar    1  UNL1        0.0041
     17 C         143.6593  143.1617  158.2713 C.ar    1  UNL1       -0.0016
     18 C         143.5374  142.6822  156.8553 C.ar    1  UNL1        0.0059
     19 C         143.8187  140.9424  154.2425 C.3     1  UNL1        0.0742
     20 S         142.6094  140.9764  155.1294 S.3     1  UNL1       -0.1127
     21 O         145.7306  141.7326  163.5523 O.2     1  UNL1       -0.4449
     22 C         145.4941  140.3972  164.1932 C.3     1  UNL1        0.2350
     23 C         144.2436  139.6283  163.8849 C.ar    1  UNL1        0.0213
     24 C         143.0913  139.6544  164.8449 C.ar    1  UNL1        0.0006
     25 C         141.8408  138.8854  164.5366 C.ar    1  UNL1        0.0156
     26 C         141.7427  138.0904  163.2683 C.ar    1  UNL1        0.0644
     27 C         142.8950  138.0644  162.3084 C.ar    1  UNL1        0.0156
     28 C         144.1454  138.8334  162.6167 C.ar    1  UNL1        0.0006
     29 N         140.4922  137.3215  162.9600 N.pl3   1  UNL1       -0.2187
     30 H         140.4832  136.3409  163.0472 H       1  UNL1        0.1734
     31 S         139.2554  138.0466  162.5188 S.O2    1  UNL1        0.0558
     32 C         138.0187  138.7718  162.0776 C.3     1  UNL1        0.1996
     33 O         138.7011  137.9473  163.9091 O.2     1  UNL1       -0.1544
     34 O         139.8096  138.1460  161.1286 O.2     1  UNL1       -0.1544
@<TRIPOS>BOND
     1    19    20    1
     2    20    13    1
     3    13    14   ar
     4    14    15   ar
     5    15    16   ar
     6     1    16    1
     7     1     2    1
     8     2     3    2
     9     3    21    1
    10    21    22    1
    11    22    23    1
    12    23    24   ar
    13    24    25   ar
    14    25    26   ar
    15    26    29    1
    16    29    31    1
    17    31    32    1
    18    31    33    2
    19    31    34    2
    20    26    27   ar
    21    27    28   ar
    22     3     4    1
    23     4     5    1
    24     4     6    1
    25     6     7    1
    26     7     8   ar
    27     8     9   ar
    28     9    10   ar
    29    10    11   ar
    30    11    12   ar
    31    16    17   ar
    32    17    18   ar
    33    18    13   ar
    34    12     1    1
    35    28    23   ar
    36    12     7   ar
    37    29    30    1
