@<TRIPOS>MOLECULE
*****
 34 38 0 0 0
SMALL
GASTEIGER

@<TRIPOS>ATOM
      1 C         142.9976  139.2615  158.0132 C.2     1  UNL1        0.3045
      2 O         143.1952  140.5239  157.2276 O.2     1  UNL1       -0.2647
      3 N         143.3308  139.2281  159.4754 N.am    1  UNL1       -0.2720
      4 C         143.1332  137.9657  160.2610 C.3     1  UNL1        0.0976
      5 C         143.4663  137.9324  161.7231 C.3     1  UNL1        0.0651
      6 C         143.9972  139.1614  162.3996 C.3     1  UNL1        0.1710
      7 C         144.1948  140.4238  161.6139 C.3     1  UNL1        0.0651
      8 C         143.8616  140.4571  160.1518 C.3     1  UNL1        0.0976
      9 C         142.2930  135.7835  156.4408 C.ar    1  UNL1        0.2501
     10 N         141.0068  136.4987  156.1505 N.ar    1  UNL1       -0.1068
     11 N         141.1142  137.8887  156.7042 N.ar    1  UNL1       -0.1021
     12 C         142.4667  138.0324  157.3367 C.ar    1  UNL1        0.3042
     13 O         143.1952  136.7314  157.1739 O.2     1  UNL1       -0.4122
     14 C         143.2725  131.5392  155.3108 C.ar    1  UNL1        0.1387
     15 C         141.9313  132.1163  154.9674 C.ar    1  UNL1        0.0371
     16 C         141.6047  133.5310  155.3441 C.ar    1  UNL1        0.0078
     17 C         142.6195  134.3687  156.0641 C.ar    1  UNL1        0.0553
     18 C         143.9608  133.7917  156.4075 C.ar    1  UNL1        0.0078
     19 C         144.2873  132.3769  156.0309 C.ar    1  UNL1        0.0371
     20 C         144.4962  129.8478  153.7643 C.3     1  UNL1        0.2525
     21 O         143.5991  130.1245  154.9341 O.3     1  UNL1       -0.4714
     22 O         144.3304  139.1280  163.8617 O.3     1  UNL1       -0.4639
     23 C         143.2573  139.3708  164.8813 C.ar    1  UNL1        0.2247
     24 C         143.5026  139.0357  166.3226 C.ar    1  UNL1        0.0574
     25 C         142.4294  139.2785  167.3421 C.ar    1  UNL1        0.0034
     26 C         141.1110  139.8563  166.9203 C.ar    1  UNL1        0.0133
     27 C         140.8657  140.1913  165.4789 C.ar    1  UNL1        0.0991
     28 N         141.9388  139.9486  164.4594 N.ar    1  UNL1       -0.2104
     29 C         140.0378  140.0991  167.9399 C.3     1  UNL1        0.1007
     30 N         140.0794  141.3316  168.7936 N.3     1  UNL1       -0.2689
     31 C         139.5623  141.4502  170.1967 C.3     1  UNL1        0.0724
     32 C         139.8087  142.8539  170.6643 C.3     1  UNL1        0.0188
     33 C         140.4780  143.6030  169.5504 C.3     1  UNL1        0.0188
     34 C         140.6453  142.6621  168.3942 C.3     1  UNL1        0.0724
@<TRIPOS>BOND
     1    20    21    1
     2    21    14    1
     3    14    15   ar
     4    15    16   ar
     5    16    17   ar
     6    17     9    1
     7     9    10   ar
     8    10    11   ar
     9    11    12   ar
    10    12     1    1
    11     1     2    2
    12     1     3   am
    13     3     4    1
    14     4     5    1
    15     5     6    1
    16     6    22    1
    17    22    23    1
    18    23    24   ar
    19    24    25   ar
    20    25    26   ar
    21    26    29    1
    22    29    30    1
    23    30    31    1
    24    31    32    1
    25    32    33    1
    26    33    34    1
    27    26    27   ar
    28    27    28   ar
    29     6     7    1
    30     7     8    1
    31    12    13   ar
    32    17    18   ar
    33    18    19   ar
    34    19    14   ar
    35    13     9   ar
    36     8     3    1
    37    28    23   ar
    38    34    30    1
@<TRIPOS>MOLECULE
*****
 34 38 0 0 0
SMALL
GASTEIGER

@<TRIPOS>ATOM
      1 C         138.6808  139.0229  161.2422 C.2     1  UNL1        0.3045
      2 O         137.3531  139.4646  160.7017 O.2     1  UNL1       -0.2647
      3 N         139.7984  138.6836  160.3011 N.am    1  UNL1       -0.2720
      4 C         141.1261  138.2419  160.8416 C.3     1  UNL1        0.0976
      5 C         142.2437  137.9026  159.9005 C.3     1  UNL1        0.0651
      6 C         142.0337  138.0050  158.4188 C.3     1  UNL1        0.1710
      7 C         140.7060  138.4467  157.8783 C.3     1  UNL1        0.0651
      8 C         139.5883  138.7860  158.8195 C.3     1  UNL1        0.0976
      9 C         139.3430  139.5011  165.0367 C.ar    1  UNL1        0.2501
     10 N         139.0849  138.0249  164.9713 N.ar    1  UNL1       -0.1068
     11 N         138.8055  137.6661  163.5419 N.ar    1  UNL1       -0.1021
     12 C         138.8908  138.9205  162.7239 C.ar    1  UNL1        0.3042
     13 O         139.2230  140.0546  163.6478 O.2     1  UNL1       -0.4122
     14 C         140.3077  141.8558  168.7482 C.ar    1  UNL1        0.1387
     15 C         140.6520  142.4102  167.3976 C.ar    1  UNL1        0.0371
     16 C         140.3304  141.6253  166.1605 C.ar    1  UNL1        0.0078
     17 C         139.6646  140.2860  166.2739 C.ar    1  UNL1        0.0553
     18 C         139.3203  139.7316  167.6244 C.ar    1  UNL1        0.0078
     19 C         139.6419  140.5165  168.8616 C.ar    1  UNL1        0.0371
     20 C         140.4268  144.1268  170.0045 C.3     1  UNL1        0.2525
     21 O         140.6293  142.6406  169.9853 O.3     1  UNL1       -0.4714
     22 O         143.1513  137.6657  157.4777 O.3     1  UNL1       -0.4639
     23 C         143.1550  136.3475  156.7619 C.ar    1  UNL1        0.2247
     24 C         142.9875  136.3026  155.2720 C.ar    1  UNL1        0.0574
     25 C         142.9912  134.9844  154.5563 C.ar    1  UNL1        0.0034
     26 C         143.1624  133.7111  155.3305 C.ar    1  UNL1        0.0133
     27 C         143.3299  133.7560  156.8204 C.ar    1  UNL1        0.0991
     28 N         143.3262  135.0742  157.5362 N.ar    1  UNL1       -0.2104
     29 C         143.1661  132.3928  154.6147 C.3     1  UNL1        0.1007
     30 N         141.8735  131.6797  154.3495 N.3     1  UNL1       -0.2689
     31 C         140.9087  131.9857  153.2424 C.3     1  UNL1        0.0724
     32 C         139.7576  131.0305  153.3535 C.3     1  UNL1        0.0188
     33 C         140.0108  130.1341  154.5293 C.3     1  UNL1        0.0188
     34 C         141.3186  130.5354  155.1448 C.3     1  UNL1        0.0724
@<TRIPOS>BOND
     1    20    21    1
     2    21    14    1
     3    14    15   ar
     4    15    16   ar
     5    16    17   ar
     6    17     9    1
     7     9    10   ar
     8    10    11   ar
     9    11    12   ar
    10    12     1    1
    11     1     2    2
    12     1     3   am
    13     3     4    1
    14     4     5    1
    15     5     6    1
    16     6    22    1
    17    22    23    1
    18    23    24   ar
    19    24    25   ar
    20    25    26   ar
    21    26    29    1
    22    29    30    1
    23    30    31    1
    24    31    32    1
    25    32    33    1
    26    33    34    1
    27    26    27   ar
    28    27    28   ar
    29     6     7    1
    30     7     8    1
    31    12    13   ar
    32    17    18   ar
    33    18    19   ar
    34    19    14   ar
    35    13     9   ar
    36     8     3    1
    37    28    23   ar
    38    34    30    1
@<TRIPOS>MOLECULE
*****
 34 38 0 0 0
SMALL
GASTEIGER

@<TRIPOS>ATOM
      1 C         142.7312  138.8149  159.0885 C.2     1  UNL1        0.3045
      2 O         143.9706  139.6572  159.0224 O.2     1  UNL1       -0.2647
      3 N         141.6692  139.1215  160.1026 N.am    1  UNL1       -0.2720
      4 C         140.4298  138.2792  160.1687 C.3     1  UNL1        0.0976
      5 C         139.3679  138.5858  161.1826 C.3     1  UNL1        0.0651
      6 C         139.5453  139.7347  162.1305 C.3     1  UNL1        0.1710
      7 C         140.7847  140.5770  162.0644 C.3     1  UNL1        0.0651
      8 C         141.8467  140.2704  161.0504 C.3     1  UNL1        0.0976
      9 C         142.8503  135.5381  157.0116 C.ar    1  UNL1        0.2501
     10 N         141.7114  136.2579  156.3523 N.ar    1  UNL1       -0.1068
     11 N         141.5281  137.5730  157.0501 N.ar    1  UNL1       -0.1021
     12 C         142.5538  137.6660  158.1406 C.ar    1  UNL1        0.3042
     13 O         143.3709  136.4083  158.1168 O.2     1  UNL1       -0.4122
     14 C         144.4281  131.4803  155.8736 C.ar    1  UNL1        0.1387
     15 C         143.5114  132.2168  154.9424 C.ar    1  UNL1        0.0371
     16 C         142.9854  133.5693  155.3217 C.ar    1  UNL1        0.0078
     17 C         143.3762  134.1855  156.6323 C.ar    1  UNL1        0.0553
     18 C         144.2930  133.4491  157.5635 C.ar    1  UNL1        0.0078
     19 C         144.8189  132.0965  157.1841 C.ar    1  UNL1        0.0371
     20 C         144.4493  128.9026  156.1971 C.3     1  UNL1        0.2525
     21 O         144.9541  130.1277  155.4942 O.3     1  UNL1       -0.4714
     22 O         138.4833  140.0413  163.1445 O.3     1  UNL1       -0.4639
     23 C         138.8435  140.1582  164.5959 C.ar    1  UNL1        0.2247
     24 C         138.4025  139.1021  165.5656 C.ar    1  UNL1        0.0574
     25 C         138.7628  139.2191  167.0169 C.ar    1  UNL1        0.0034
     26 C         139.5640  140.3921  167.4987 C.ar    1  UNL1        0.0133
     27 C         140.0050  141.4482  166.5290 C.ar    1  UNL1        0.0991
     28 N         139.6447  141.3313  165.0777 N.ar    1  UNL1       -0.2104
     29 C         139.9242  140.5091  168.9501 C.3     1  UNL1        0.1007
     30 N         141.1485  141.2726  169.3599 N.3     1  UNL1       -0.2689
     31 C         141.1681  142.6221  170.0146 C.3     1  UNL1        0.0724
     32 C         142.5999  143.0041  170.2462 C.3     1  UNL1        0.0188
     33 C         143.4654  141.8909  169.7348 C.3     1  UNL1        0.0188
     34 C         142.5684  140.8207  169.1870 C.3     1  UNL1        0.0724
@<TRIPOS>BOND
     1    20    21    1
     2    21    14    1
     3    14    15   ar
     4    15    16   ar
     5    16    17   ar
     6    17     9    1
     7     9    10   ar
     8    10    11   ar
     9    11    12   ar
    10    12     1    1
    11     1     2    2
    12     1     3   am
    13     3     4    1
    14     4     5    1
    15     5     6    1
    16     6    22    1
    17    22    23    1
    18    23    24   ar
    19    24    25   ar
    20    25    26   ar
    21    26    29    1
    22    29    30    1
    23    30    31    1
    24    31    32    1
    25    32    33    1
    26    33    34    1
    27    26    27   ar
    28    27    28   ar
    29     6     7    1
    30     7     8    1
    31    12    13   ar
    32    17    18   ar
    33    18    19   ar
    34    19    14   ar
    35    13     9   ar
    36     8     3    1
    37    28    23   ar
    38    34    30    1
@<TRIPOS>MOLECULE
*****
 34 38 0 0 0
SMALL
GASTEIGER

@<TRIPOS>ATOM
      1 C         138.6977  139.0159  161.3193 C.2     1  UNL1        0.3045
      2 O         137.3455  139.4048  160.7995 O.2     1  UNL1       -0.2647
      3 N         139.8060  138.6953  160.3607 N.am    1  UNL1       -0.2720
      4 C         141.1582  138.3064  160.8805 C.3     1  UNL1        0.0976
      5 C         142.2665  137.9859  159.9220 C.3     1  UNL1        0.0651
      6 C         142.0226  138.0542  158.4435 C.3     1  UNL1        0.1710
      7 C         140.6704  138.4431  157.9237 C.3     1  UNL1        0.0651
      8 C         139.5621  138.7637  158.8823 C.3     1  UNL1        0.0976
      9 C         139.4322  139.5834  165.0881 C.ar    1  UNL1        0.2501
     10 N         139.2017  138.1015  165.0576 N.ar    1  UNL1       -0.1068
     11 N         138.8985  137.7085  163.6421 N.ar    1  UNL1       -0.1021
     12 C         138.9416  138.9476  162.7978 C.ar    1  UNL1        0.3042
     13 O         139.2714  140.1063  163.6914 O.2     1  UNL1       -0.4122
     14 C         140.4305  142.0307  168.7301 C.ar    1  UNL1        0.1387
     15 C         139.7605  140.6975  168.8830 C.ar    1  UNL1        0.0371
     16 C         139.4277  139.8817  167.6690 C.ar    1  UNL1        0.0078
     17 C         139.7650  140.3992  166.3021 C.ar    1  UNL1        0.0553
     18 C         140.4350  141.7324  166.1492 C.ar    1  UNL1        0.0078
     19 C         140.7678  142.5482  167.3632 C.ar    1  UNL1        0.0371
     20 C         142.1963  143.1002  170.3075 C.3     1  UNL1        0.2525
     21 O         140.7633  142.8465  169.9441 O.3     1  UNL1       -0.4714
     22 O         143.1309  137.7336  157.4849 O.3     1  UNL1       -0.4639
     23 C         143.1222  136.4341  156.7359 C.ar    1  UNL1        0.2247
     24 C         143.3259  135.1429  157.4718 C.ar    1  UNL1        0.0574
     25 C         143.3172  133.8434  156.7227 C.ar    1  UNL1        0.0034
     26 C         143.1049  133.8350  155.2379 C.ar    1  UNL1        0.0133
     27 C         142.9012  135.1261  154.5020 C.ar    1  UNL1        0.0991
     28 N         142.9098  136.4256  155.2510 N.ar    1  UNL1       -0.2104
     29 C         143.0962  132.5353  154.4888 C.3     1  UNL1        0.1007
     30 N         143.3627  131.2498  155.2142 N.3     1  UNL1       -0.2689
     31 C         144.7136  130.6795  155.5305 C.3     1  UNL1        0.0724
     32 C         144.5109  129.3861  156.2624 C.3     1  UNL1        0.0188
     33 C         143.0347  129.1568  156.3986 C.3     1  UNL1        0.0188
     34 C         142.3252  130.3087  155.7507 C.3     1  UNL1        0.0724
@<TRIPOS>BOND
     1    20    21    1
     2    21    14    1
     3    14    15   ar
     4    15    16   ar
     5    16    17   ar
     6    17     9    1
     7     9    10   ar
     8    10    11   ar
     9    11    12   ar
    10    12     1    1
    11     1     2    2
    12     1     3   am
    13     3     4    1
    14     4     5    1
    15     5     6    1
    16     6    22    1
    17    22    23    1
    18    23    24   ar
    19    24    25   ar
    20    25    26   ar
    21    26    29    1
    22    29    30    1
    23    30    31    1
    24    31    32    1
    25    32    33    1
    26    33    34    1
    27    26    27   ar
    28    27    28   ar
    29     6     7    1
    30     7     8    1
    31    12    13   ar
    32    17    18   ar
    33    18    19   ar
    34    19    14   ar
    35    13     9   ar
    36     8     3    1
    37    28    23   ar
    38    34    30    1
@<TRIPOS>MOLECULE
*****
 34 38 0 0 0
SMALL
GASTEIGER

@<TRIPOS>ATOM
      1 C         138.6976  139.8826  160.0409 C.2     1  UNL1        0.3045
      2 O         137.3414  139.8858  159.4002 O.2     1  UNL1       -0.2647
      3 N         139.8619  139.2597  159.3292 N.am    1  UNL1       -0.2720
      4 C         141.2181  139.2566  159.9700 C.3     1  UNL1        0.0976
      5 C         142.3824  138.6337  159.2584 C.3     1  UNL1        0.0651
      6 C         142.1904  138.0139  157.9059 C.3     1  UNL1        0.1710
      7 C         140.8342  138.0171  157.2652 C.3     1  UNL1        0.0651
      8 C         139.6699  138.6400  157.9769 C.3     1  UNL1        0.0976
      9 C         139.0865  140.7855  163.7958 C.ar    1  UNL1        0.2501
     10 N         139.2834  142.1265  163.1533 N.ar    1  UNL1       -0.1068
     11 N         139.1617  141.9516  161.6685 N.ar    1  UNL1       -0.1021
     12 C         138.8896  140.5024  161.3933 C.ar    1  UNL1        0.3042
     13 O         138.8431  139.7817  162.7081 O.2     1  UNL1       -0.4122
     14 C         139.2051  139.9248  168.2111 C.ar    1  UNL1        0.1387
     15 C         138.2838  139.1461  167.3197 C.ar    1  UNL1        0.0371
     16 C         138.2443  139.4330  165.8479 C.ar    1  UNL1        0.0078
     17 C         139.1260  140.4986  165.2676 C.ar    1  UNL1        0.0553
     18 C         140.0473  141.2774  166.1590 C.ar    1  UNL1        0.0078
     19 C         140.0868  140.9905  167.6308 C.ar    1  UNL1        0.0371
     20 C         140.3316  140.2262  170.5328 C.3     1  UNL1        0.2525
     21 O         139.2446  139.6379  169.6829 O.3     1  UNL1       -0.4714
     22 O         143.3547  137.3910  157.1943 O.3     1  UNL1       -0.4639
     23 C         143.1986  136.0576  156.5252 C.ar    1  UNL1        0.2247
     24 C         142.9481  135.9845  155.0480 C.ar    1  UNL1        0.0574
     25 C         142.7920  134.6512  154.3789 C.ar    1  UNL1        0.0034
     26 C         142.8864  133.3909  155.1870 C.ar    1  UNL1        0.0133
     27 C         143.1368  133.4640  156.6641 C.ar    1  UNL1        0.0991
     28 N         143.2929  134.7974  157.3332 N.ar    1  UNL1       -0.2104
     29 C         142.7302  132.0575  154.5178 C.3     1  UNL1        0.1007
     30 N         143.2523  130.8187  155.1831 N.3     1  UNL1       -0.2689
     31 C         142.4338  129.8067  155.9288 C.3     1  UNL1        0.0724
     32 C         143.3602  128.7370  156.4261 C.3     1  UNL1        0.0188
     33 C         144.7512  129.0877  155.9879 C.3     1  UNL1        0.0188
     34 C         144.6845  130.3743  155.2196 C.3     1  UNL1        0.0724
@<TRIPOS>BOND
     1    20    21    1
     2    21    14    1
     3    14    15   ar
     4    15    16   ar
     5    16    17   ar
     6    17     9    1
     7     9    10   ar
     8    10    11   ar
     9    11    12   ar
    10    12     1    1
    11     1     2    2
    12     1     3   am
    13     3     4    1
    14     4     5    1
    15     5     6    1
    16     6    22    1
    17    22    23    1
    18    23    24   ar
    19    24    25   ar
    20    25    26   ar
    21    26    29    1
    22    29    30    1
    23    30    31    1
    24    31    32    1
    25    32    33    1
    26    33    34    1
    27    26    27   ar
    28    27    28   ar
    29     6     7    1
    30     7     8    1
    31    12    13   ar
    32    17    18   ar
    33    18    19   ar
    34    19    14   ar
    35    13     9   ar
    36     8     3    1
    37    28    23   ar
    38    34    30    1
@<TRIPOS>MOLECULE
*****
 34 38 0 0 0
SMALL
GASTEIGER

@<TRIPOS>ATOM
      1 C         139.7021  144.7372  157.8002 C.2     1  UNL1        0.3045
      2 O         139.8701  145.9685  156.9601 O.2     1  UNL1       -0.2647
      3 N         138.8507  143.6043  157.3087 N.am    1  UNL1       -0.2720
      4 C         138.6827  142.3731  158.1489 C.3     1  UNL1        0.0976
      5 C         137.8313  141.2402  157.6574 C.3     1  UNL1        0.0651
      6 C         137.1479  141.3385  156.3258 C.3     1  UNL1        0.1710
      7 C         137.3159  142.5697  155.4857 C.3     1  UNL1        0.0651
      8 C         138.1673  143.7026  155.9771 C.3     1  UNL1        0.0976
      9 C         140.7818  144.3207  161.5051 C.ar    1  UNL1        0.2501
     10 N         142.0926  144.6549  160.8570 N.ar    1  UNL1       -0.1068
     11 N         141.8477  144.8516  159.3903 N.ar    1  UNL1       -0.1021
     12 C         140.3855  144.6390  159.1318 C.ar    1  UNL1        0.3042
     13 O         139.7268  144.3109  160.4389 O.2     1  UNL1       -0.4122
     14 C         140.1290  143.4928  165.8799 C.ar    1  UNL1        0.1387
     15 C         141.2124  142.7722  165.1337 C.ar    1  UNL1        0.0371
     16 C         141.4300  143.0481  163.6755 C.ar    1  UNL1        0.0078
     17 C         140.5642  144.0447  162.9634 C.ar    1  UNL1        0.0553
     18 C         139.4807  144.7654  163.7095 C.ar    1  UNL1        0.0078
     19 C         139.2631  144.4894  165.1678 C.ar    1  UNL1        0.0371
     20 C         141.0093  142.6067  168.1580 C.3     1  UNL1        0.2525
     21 O         139.9113  143.2169  167.3381 O.3     1  UNL1       -0.4714
     22 O         136.2965  140.2055  155.8343 O.3     1  UNL1       -0.4639
     23 C         134.8118  140.2365  156.0459 C.ar    1  UNL1        0.2247
     24 C         133.9554  141.1500  155.2201 C.ar    1  UNL1        0.0574
     25 C         132.4708  141.1810  155.4317 C.ar    1  UNL1        0.0034
     26 C         131.8425  140.2984  156.4691 C.ar    1  UNL1        0.0133
     27 C         132.6988  139.3849  157.2950 C.ar    1  UNL1        0.0991
     28 N         134.1835  139.3539  157.0834 N.ar    1  UNL1       -0.2104
     29 C         130.3577  140.3294  156.6807 C.3     1  UNL1        0.1007
     30 N         129.6573  139.1352  157.2579 N.3     1  UNL1       -0.2689
     31 C         129.1597  137.9476  156.4885 C.3     1  UNL1        0.0724
     32 C         128.5264  136.9974  157.4610 C.3     1  UNL1        0.0188
     33 C         128.6324  137.5977  158.8316 C.3     1  UNL1        0.0188
     34 C         129.3313  138.9189  158.7060 C.3     1  UNL1        0.0724
@<TRIPOS>BOND
     1    20    21    1
     2    21    14    1
     3    14    15   ar
     4    15    16   ar
     5    16    17   ar
     6    17     9    1
     7     9    10   ar
     8    10    11   ar
     9    11    12   ar
    10    12     1    1
    11     1     2    2
    12     1     3   am
    13     3     4    1
    14     4     5    1
    15     5     6    1
    16     6    22    1
    17    22    23    1
    18    23    24   ar
    19    24    25   ar
    20    25    26   ar
    21    26    29    1
    22    29    30    1
    23    30    31    1
    24    31    32    1
    25    32    33    1
    26    33    34    1
    27    26    27   ar
    28    27    28   ar
    29     6     7    1
    30     7     8    1
    31    12    13   ar
    32    17    18   ar
    33    18    19   ar
    34    19    14   ar
    35    13     9   ar
    36     8     3    1
    37    28    23   ar
    38    34    30    1
@<TRIPOS>MOLECULE
*****
 34 38 0 0 0
SMALL
GASTEIGER

@<TRIPOS>ATOM
      1 C         138.3998  143.2170  155.2900 C.2     1  UNL1        0.3045
      2 O         138.6251  143.7991  153.9261 O.2     1  UNL1       -0.2647
      3 N         139.1556  143.7544  156.4690 N.am    1  UNL1       -0.2720
      4 C         138.9303  143.1724  157.8330 C.3     1  UNL1        0.0976
      5 C         139.6861  143.7098  159.0119 C.3     1  UNL1        0.0651
      6 C         140.6672  144.8293  158.8269 C.3     1  UNL1        0.1710
      7 C         140.8925  145.4113  157.4629 C.3     1  UNL1        0.0651
      8 C         140.1366  144.8739  156.2839 C.3     1  UNL1        0.0976
      9 C         135.3648  140.8737  155.8926 C.ar    1  UNL1        0.2501
     10 N         136.4530  139.8761  155.6270 N.ar    1  UNL1       -0.1068
     11 N         137.7224  140.6324  155.3689 N.ar    1  UNL1       -0.1021
     12 C         137.4187  142.0975  155.4750 C.ar    1  UNL1        0.3042
     13 O         135.9616  142.2466  155.7987 O.2     1  UNL1       -0.4122
     14 C         131.0647  139.9159  156.8099 C.ar    1  UNL1        0.1387
     15 C         131.3985  140.9783  155.8051 C.ar    1  UNL1        0.0371
     16 C         132.8319  141.2976  155.4993 C.ar    1  UNL1        0.0078
     17 C         133.9314  140.5544  156.1984 C.ar    1  UNL1        0.0553
     18 C         133.5976  139.4920  157.2032 C.ar    1  UNL1        0.0078
     19 C         132.1642  139.1728  157.5090 C.ar    1  UNL1        0.0371
     20 C         129.2367  139.1685  158.4981 C.3     1  UNL1        0.2525
     21 O         129.6313  139.5966  157.1157 O.3     1  UNL1       -0.4714
     22 O         141.4230  145.3667  160.0058 O.3     1  UNL1       -0.4639
     23 C         141.1334  144.8468  161.3827 C.ar    1  UNL1        0.2247
     24 C         140.0632  145.4870  162.2163 C.ar    1  UNL1        0.0574
     25 C         139.7736  144.9672  163.5932 C.ar    1  UNL1        0.0034
     26 C         140.5541  143.8071  164.1365 C.ar    1  UNL1        0.0133
     27 C         141.6243  143.1670  163.3029 C.ar    1  UNL1        0.0991
     28 N         141.9139  143.6868  161.9260 N.ar    1  UNL1       -0.2104
     29 C         140.2644  143.2873  165.5135 C.3     1  UNL1        0.1007
     30 N         139.6305  141.9392  165.6882 N.3     1  UNL1       -0.2689
     31 C         138.5561  141.3511  164.8223 C.3     1  UNL1        0.0724
     32 C         138.2213  139.9909  165.3586 C.3     1  UNL1        0.0188
     33 C         139.0887  139.7382  166.5560 C.3     1  UNL1        0.0188
     34 C         139.9596  140.9424  166.7597 C.3     1  UNL1        0.0724
@<TRIPOS>BOND
     1    20    21    1
     2    21    14    1
     3    14    15   ar
     4    15    16   ar
     5    16    17   ar
     6    17     9    1
     7     9    10   ar
     8    10    11   ar
     9    11    12   ar
    10    12     1    1
    11     1     2    2
    12     1     3   am
    13     3     4    1
    14     4     5    1
    15     5     6    1
    16     6    22    1
    17    22    23    1
    18    23    24   ar
    19    24    25   ar
    20    25    26   ar
    21    26    29    1
    22    29    30    1
    23    30    31    1
    24    31    32    1
    25    32    33    1
    26    33    34    1
    27    26    27   ar
    28    27    28   ar
    29     6     7    1
    30     7     8    1
    31    12    13   ar
    32    17    18   ar
    33    18    19   ar
    34    19    14   ar
    35    13     9   ar
    36     8     3    1
    37    28    23   ar
    38    34    30    1
@<TRIPOS>MOLECULE
*****
 34 38 0 0 0
SMALL
GASTEIGER

@<TRIPOS>ATOM
      1 C         142.0443  139.5384  158.1755 C.2     1  UNL1        0.3045
      2 O         140.8920  140.3048  157.5968 O.2     1  UNL1       -0.2647
      3 N         142.6556  139.9710  159.4752 N.am    1  UNL1       -0.2720
      4 C         143.8078  139.2047  160.0539 C.3     1  UNL1        0.0976
      5 C         144.4191  139.6373  161.3535 C.3     1  UNL1        0.0651
      6 C         143.8781  140.8362  162.0745 C.3     1  UNL1        0.1710
      7 C         142.7258  141.6025  161.4958 C.3     1  UNL1        0.0651
      8 C         142.1145  141.1699  160.1961 C.3     1  UNL1        0.0976
      9 C         142.8941  136.0646  156.6669 C.ar    1  UNL1        0.2501
     10 N         143.9413  136.9243  156.0231 N.ar    1  UNL1       -0.1068
     11 N         143.7504  138.3302  156.5099 N.ar    1  UNL1       -0.1021
     12 C         142.5852  138.3395  157.4545 C.ar    1  UNL1        0.3042
     13 O         142.0561  136.9393  157.5515 O.2     1  UNL1       -0.4122
     14 C         142.3605  131.6388  156.0522 C.ar    1  UNL1        0.1387
     15 C         143.3551  132.1421  157.0560 C.ar    1  UNL1        0.0371
     16 C         143.5330  133.6174  157.2608 C.ar    1  UNL1        0.0078
     17 C         142.7163  134.5893  156.4620 C.ar    1  UNL1        0.0553
     18 C         141.7217  134.0861  155.4583 C.ar    1  UNL1        0.0078
     19 C         141.5438  132.6108  155.2534 C.ar    1  UNL1        0.0371
     20 C         142.8586  129.4794  154.6963 C.3     1  UNL1        0.2525
     21 O         142.1827  130.1636  155.8474 O.3     1  UNL1       -0.4714
     22 O         144.4894  141.2688  163.3742 O.3     1  UNL1       -0.4639
     23 C         143.8988  140.8040  164.6723 C.ar    1  UNL1        0.2247
     24 C         143.2826  141.7960  165.6137 C.ar    1  UNL1        0.0574
     25 C         142.6920  141.3313  166.9118 C.ar    1  UNL1        0.0034
     26 C         142.7175  139.8745  167.2685 C.ar    1  UNL1        0.0133
     27 C         143.3336  138.8825  166.3271 C.ar    1  UNL1        0.0991
     28 N         143.9242  139.3473  165.0290 N.ar    1  UNL1       -0.2104
     29 C         142.1268  139.4097  168.5667 C.3     1  UNL1        0.1007
     30 N         141.3289  140.3592  169.4103 N.3     1  UNL1       -0.2689
     31 C         139.8655  140.6535  169.2627 C.3     1  UNL1        0.0724
     32 C         139.4866  141.6574  170.3108 C.3     1  UNL1        0.0188
     33 C         140.7158  141.9836  171.1063 C.3     1  UNL1        0.0188
     34 C         141.8544  141.1812  170.5496 C.3     1  UNL1        0.0724
@<TRIPOS>BOND
     1    20    21    1
     2    21    14    1
     3    14    15   ar
     4    15    16   ar
     5    16    17   ar
     6    17     9    1
     7     9    10   ar
     8    10    11   ar
     9    11    12   ar
    10    12     1    1
    11     1     2    2
    12     1     3   am
    13     3     4    1
    14     4     5    1
    15     5     6    1
    16     6    22    1
    17    22    23    1
    18    23    24   ar
    19    24    25   ar
    20    25    26   ar
    21    26    29    1
    22    29    30    1
    23    30    31    1
    24    31    32    1
    25    32    33    1
    26    33    34    1
    27    26    27   ar
    28    27    28   ar
    29     6     7    1
    30     7     8    1
    31    12    13   ar
    32    17    18   ar
    33    18    19   ar
    34    19    14   ar
    35    13     9   ar
    36     8     3    1
    37    28    23   ar
    38    34    30    1
@<TRIPOS>MOLECULE
*****
 34 38 0 0 0
SMALL
GASTEIGER

@<TRIPOS>ATOM
      1 C         142.6873  140.7455  156.3265 C.2     1  UNL1        0.3045
      2 O         141.8172  141.3576  155.2691 O.2     1  UNL1       -0.2647
      3 N         142.9489  141.4866  157.6042 N.am    1  UNL1       -0.2720
      4 C         143.8190  140.8745  158.6616 C.3     1  UNL1        0.0976
      5 C         144.0805  141.6155  159.9392 C.3     1  UNL1        0.0651
      6 C         143.4719  142.9687  160.1594 C.3     1  UNL1        0.1710
      7 C         142.6018  143.5808  159.1020 C.3     1  UNL1        0.0651
      8 C         142.3403  142.8397  157.8243 C.3     1  UNL1        0.0976
      9 C         143.5724  136.9882  155.9207 C.ar    1  UNL1        0.2501
     10 N         144.8922  137.6317  155.6140 N.ar    1  UNL1       -0.1068
     11 N         144.7213  139.1175  155.7287 N.ar    1  UNL1       -0.1021
     12 C         143.2959  139.3923  156.1063 C.ar    1  UNL1        0.3042
     13 O         142.5859  138.0764  156.2249 O.2     1  UNL1       -0.4122
     14 C         142.7221  132.5693  155.9270 C.ar    1  UNL1        0.1387
     15 C         142.5884  133.3570  154.6575 C.ar    1  UNL1        0.0371
     16 C         142.8718  134.8299  154.6554 C.ar    1  UNL1        0.0078
     17 C         143.2890  135.5152  155.9228 C.ar    1  UNL1        0.0553
     18 C         143.4227  134.7275  157.1923 C.ar    1  UNL1        0.0078
     19 C         143.1393  133.2546  157.1944 C.ar    1  UNL1        0.0371
     20 C         141.3678  130.5373  155.0400 C.3     1  UNL1        0.2525
     21 O         142.4387  131.0963  155.9291 O.3     1  UNL1       -0.4714
     22 O         143.7335  143.7098  161.4371 O.3     1  UNL1       -0.4639
     23 C         143.4066  143.0717  162.7546 C.ar    1  UNL1        0.2247
     24 C         144.2654  143.3449  163.9538 C.ar    1  UNL1        0.0574
     25 C         143.9385  142.7068  165.2713 C.ar    1  UNL1        0.0034
     26 C         142.7529  141.7955  165.3897 C.ar    1  UNL1        0.0133
     27 C         141.8942  141.5223  164.1906 C.ar    1  UNL1        0.0991
     28 N         142.2210  142.1604  162.8730 N.ar    1  UNL1       -0.2104
     29 C         142.4261  141.1573  166.7074 C.3     1  UNL1        0.1007
     30 N         141.9311  141.9989  167.8460 N.3     1  UNL1       -0.2689
     31 C         140.5662  142.6099  167.9626 C.3     1  UNL1        0.0724
     32 C         140.5057  143.3658  169.2567 C.3     1  UNL1        0.0188
     33 C         141.8333  143.2222  169.9401 C.3     1  UNL1        0.0188
     34 C         142.7142  142.3773  169.0682 C.3     1  UNL1        0.0724
@<TRIPOS>BOND
     1    20    21    1
     2    21    14    1
     3    14    15   ar
     4    15    16   ar
     5    16    17   ar
     6    17     9    1
     7     9    10   ar
     8    10    11   ar
     9    11    12   ar
    10    12     1    1
    11     1     2    2
    12     1     3   am
    13     3     4    1
    14     4     5    1
    15     5     6    1
    16     6    22    1
    17    22    23    1
    18    23    24   ar
    19    24    25   ar
    20    25    26   ar
    21    26    29    1
    22    29    30    1
    23    30    31    1
    24    31    32    1
    25    32    33    1
    26    33    34    1
    27    26    27   ar
    28    27    28   ar
    29     6     7    1
    30     7     8    1
    31    12    13   ar
    32    17    18   ar
    33    18    19   ar
    34    19    14   ar
    35    13     9   ar
    36     8     3    1
    37    28    23   ar
    38    34    30    1
