@<TRIPOS>MOLECULE
*****
 31 35 0 0 0
SMALL
GASTEIGER

@<TRIPOS>ATOM
      1 C         138.2999  140.0260  159.9937 C.ar    1  UNL1        0.0344
      2 C         139.2143  138.8373  159.9660 C.ar    1  UNL1        0.0061
      3 C         139.4802  138.0661  161.2248 C.ar    1  UNL1        0.0370
      4 C         138.8316  138.4837  162.5112 C.ar    1  UNL1        0.1384
      5 C         137.9171  139.6724  162.5389 C.ar    1  UNL1        0.0370
      6 C         137.6513  140.4435  161.2801 C.ar    1  UNL1        0.0061
      7 C         135.5717  140.7054  155.6238 C.ar    1  UNL1        0.1564
      8 C         135.3059  141.4765  154.3650 C.ar    1  UNL1        0.0385
      9 C         136.1383  142.6791  154.0322 C.ar    1  UNL1        0.0034
     10 C         137.2366  143.1106  154.9583 C.ar    1  UNL1        0.0065
     11 C         137.5024  142.3395  156.2171 C.ar    1  UNL1        0.0768
     12 C         138.6007  142.7709  157.1432 C.ar    1  UNL1        0.2635
     13 O         139.4331  143.9735  156.8105 O.2     1  UNL1       -0.2669
     14 N         138.8665  141.9998  158.4020 N.ar    1  UNL1       -0.2786
     15 C         139.9648  142.4312  159.3282 C.3     1  UNL1        0.1350
     16 C         138.0340  140.7971  158.7348 C.ar    1  UNL1        0.1461
     17 N         136.9358  140.3657  157.8087 N.ar    1  UNL1       -0.2250
     18 C         136.6699  141.1368  156.5498 C.ar    1  UNL1        0.1213
     19 C         133.4121  139.6734  156.6344 C.3     1  UNL1        0.2525
     20 O         134.7392  139.5027  155.9565 O.3     1  UNL1       -0.4699
     21 O         139.0974  137.7125  163.7701 O.3     1  UNL1       -0.4791
     22 C         139.3161  138.4402  165.0634 C.3     1  UNL1        0.1687
     23 C         138.2186  138.5019  166.0841 C.3     1  UNL1        0.0609
     24 C         138.4373  139.2297  167.3774 C.3     1  UNL1        0.0758
     25 N         139.7534  139.8957  167.6499 N.3     1  UNL1       -0.2737
     26 C         140.8508  139.8340  166.6292 C.3     1  UNL1        0.0758
     27 C         140.6321  139.1063  165.3360 C.3     1  UNL1        0.0609
     28 C         139.9721  140.6235  168.9432 C.3     1  UNL1        0.0575
     29 C         139.9736  140.2347  170.3920 C.3     1  UNL1        0.0160
     30 C         140.2813  141.6527  170.7722 C.3     1  UNL1        0.0028
     31 C         140.2798  142.0415  169.3235 C.3     1  UNL1        0.0160
@<TRIPOS>BOND
     1    19    20    1
     2    20     7    1
     3     7     8   ar
     4     8     9   ar
     5     9    10   ar
     6    10    11   ar
     7    11    12   ar
     8    12    13    2
     9    12    14   ar
    10    14    15    1
    11    14    16   ar
    12    16     1    1
    13     1     2   ar
    14     2     3   ar
    15     3     4   ar
    16     4    21    1
    17    21    22    1
    18    22    23    1
    19    23    24    1
    20    24    25    1
    21    25    28    1
    22    28    29    1
    23    29    30    1
    24    30    31    1
    25    25    26    1
    26    26    27    1
    27     4     5   ar
    28     5     6   ar
    29    16    17   ar
    30    17    18   ar
    31    18     7   ar
    32    18    11   ar
    33     6     1   ar
    34    27    22    1
    35    31    28    1
@<TRIPOS>MOLECULE
*****
 31 35 0 0 0
SMALL
GASTEIGER

@<TRIPOS>ATOM
      1 C         140.4159  139.3182  159.8805 C.ar    1  UNL1        0.0344
      2 C         139.5368  138.8383  158.7639 C.ar    1  UNL1        0.0061
      3 C         140.1367  138.1142  157.5953 C.ar    1  UNL1        0.0370
      4 C         141.6157  137.8699  157.5433 C.ar    1  UNL1        0.1384
      5 C         142.4948  138.3498  158.6600 C.ar    1  UNL1        0.0370
      6 C         141.8949  139.0739  159.8286 C.ar    1  UNL1        0.0061
      7 C         138.8459  143.7416  162.1097 C.ar    1  UNL1        0.1564
      8 C         138.2460  144.4657  163.2783 C.ar    1  UNL1        0.0385
      9 C         137.8309  143.7023  164.5009 C.ar    1  UNL1        0.0034
     10 C         138.0159  142.2147  164.5550 C.ar    1  UNL1        0.0065
     11 C         138.6159  141.4906  163.3864 C.ar    1  UNL1        0.0768
     12 C         138.8009  140.0030  163.4404 C.ar    1  UNL1        0.2635
     13 O         138.3858  139.2396  164.6631 O.2     1  UNL1       -0.2669
     14 N         139.4008  139.2789  162.2718 N.ar    1  UNL1       -0.2786
     15 C         139.5858  137.7913  162.3258 C.3     1  UNL1        0.1350
     16 C         139.8159  140.0424  161.0491 C.ar    1  UNL1        0.1461
     17 N         139.6309  141.5299  160.9951 N.ar    1  UNL1       -0.2250
     18 C         139.0309  142.2541  162.1637 C.ar    1  UNL1        0.1213
     19 C         140.4691  145.3929  160.9314 C.3     1  UNL1        0.2525
     20 O         139.2610  144.5051  160.8870 O.3     1  UNL1       -0.4699
     21 O         142.2157  137.1457  156.3747 O.3     1  UNL1       -0.4791
     22 C         142.3306  135.6503  156.3977 C.3     1  UNL1        0.1687
     23 C         141.4814  134.8187  155.4825 C.3     1  UNL1        0.0609
     24 C         141.5962  133.3233  155.5055 C.3     1  UNL1        0.0758
     25 N         142.5603  132.6595  156.4436 N.3     1  UNL1       -0.2737
     26 C         143.4094  133.4910  157.3587 C.3     1  UNL1        0.0758
     27 C         143.2946  134.9865  157.3357 C.3     1  UNL1        0.0609
     28 C         142.6751  131.1641  156.4666 C.3     1  UNL1        0.0575
     29 C         143.3906  130.1683  157.3308 C.3     1  UNL1        0.0160
     30 C         142.8376  129.0492  156.4991 C.3     1  UNL1        0.0028
     31 C         142.1221  130.0448  155.6350 C.3     1  UNL1        0.0160
@<TRIPOS>BOND
     1    19    20    1
     2    20     7    1
     3     7     8   ar
     4     8     9   ar
     5     9    10   ar
     6    10    11   ar
     7    11    12   ar
     8    12    13    2
     9    12    14   ar
    10    14    15    1
    11    14    16   ar
    12    16     1    1
    13     1     2   ar
    14     2     3   ar
    15     3     4   ar
    16     4    21    1
    17    21    22    1
    18    22    23    1
    19    23    24    1
    20    24    25    1
    21    25    28    1
    22    28    29    1
    23    29    30    1
    24    30    31    1
    25    25    26    1
    26    26    27    1
    27     4     5   ar
    28     5     6   ar
    29    16    17   ar
    30    17    18   ar
    31    18     7   ar
    32    18    11   ar
    33     6     1   ar
    34    27    22    1
    35    31    28    1
@<TRIPOS>MOLECULE
*****
 31 35 0 0 0
SMALL
GASTEIGER

@<TRIPOS>ATOM
      1 C         139.5213  139.0152  159.9376 C.ar    1  UNL1        0.0344
      2 C         139.2924  138.0213  161.0376 C.ar    1  UNL1        0.0061
      3 C         138.6665  138.4614  162.3277 C.ar    1  UNL1        0.0370
      4 C         138.2694  139.8953  162.5179 C.ar    1  UNL1        0.1384
      5 C         138.4983  140.8891  161.4180 C.ar    1  UNL1        0.0370
      6 C         139.1242  140.4491  160.1278 C.ar    1  UNL1        0.0061
      7 C         139.0394  137.2722  155.0663 C.ar    1  UNL1        0.1564
      8 C         139.6654  136.8322  153.7762 C.ar    1  UNL1        0.0385
      9 C         141.1584  136.8235  153.6316 C.ar    1  UNL1        0.0034
     10 C         142.0254  137.2549  154.7771 C.ar    1  UNL1        0.0065
     11 C         141.3994  137.6950  156.0672 C.ar    1  UNL1        0.0768
     12 C         142.2664  138.1264  157.2127 C.ar    1  UNL1        0.2635
     13 O         143.7593  138.1177  157.0682 O.2     1  UNL1       -0.2669
     14 N         141.6403  138.5664  158.5028 N.ar    1  UNL1       -0.2786
     15 C         142.5073  138.9979  159.6484 C.3     1  UNL1        0.1350
     16 C         140.1473  138.5751  158.6474 C.ar    1  UNL1        0.1461
     17 N         139.2804  138.1437  157.5019 N.ar    1  UNL1       -0.2250
     18 C         139.9064  137.7036  156.2118 C.ar    1  UNL1        0.1213
     19 C         136.6949  137.9294  154.1600 C.3     1  UNL1        0.2525
     20 O         137.5464  137.2809  155.2108 O.3     1  UNL1       -0.4699
     21 O         137.6434  140.3354  163.8081 O.3     1  UNL1       -0.4791
     22 C         138.5068  140.8325  164.9294 C.3     1  UNL1        0.1687
     23 C         138.8137  139.9373  166.0933 C.3     1  UNL1        0.0609
     24 C         139.6771  140.4344  167.2146 C.3     1  UNL1        0.0758
     25 N         140.2336  141.8268  167.1721 N.3     1  UNL1       -0.2737
     26 C         139.9267  142.7219  166.0082 C.3     1  UNL1        0.0758
     27 C         139.0633  142.2247  164.8869 C.3     1  UNL1        0.0609
     28 C         141.0970  142.3239  168.2934 C.3     1  UNL1        0.0575
     29 C         140.8680  143.1584  169.5187 C.3     1  UNL1        0.0160
     30 C         142.3181  143.0269  169.8792 C.3     1  UNL1        0.0028
     31 C         142.5471  142.1926  168.6540 C.3     1  UNL1        0.0160
@<TRIPOS>BOND
     1    19    20    1
     2    20     7    1
     3     7     8   ar
     4     8     9   ar
     5     9    10   ar
     6    10    11   ar
     7    11    12   ar
     8    12    13    2
     9    12    14   ar
    10    14    15    1
    11    14    16   ar
    12    16     1    1
    13     1     2   ar
    14     2     3   ar
    15     3     4   ar
    16     4    21    1
    17    21    22    1
    18    22    23    1
    19    23    24    1
    20    24    25    1
    21    25    28    1
    22    28    29    1
    23    29    30    1
    24    30    31    1
    25    25    26    1
    26    26    27    1
    27     4     5   ar
    28     5     6   ar
    29    16    17   ar
    30    17    18   ar
    31    18     7   ar
    32    18    11   ar
    33     6     1   ar
    34    27    22    1
    35    31    28    1
@<TRIPOS>MOLECULE
*****
 31 35 0 0 0
SMALL
GASTEIGER

@<TRIPOS>ATOM
      1 C         142.5018  138.4889  160.4965 C.ar    1  UNL1        0.0344
      2 C         142.0257  137.7993  161.7406 C.ar    1  UNL1        0.0061
      3 C         142.6477  138.1284  163.0653 C.ar    1  UNL1        0.0370
      4 C         143.7457  139.1471  163.1458 C.ar    1  UNL1        0.1384
      5 C         144.2218  139.8367  161.9017 C.ar    1  UNL1        0.0370
      6 C         143.5998  139.5076  160.5770 C.ar    1  UNL1        0.0061
      7 C         142.5890  135.8666  156.0114 C.ar    1  UNL1        0.1564
      8 C         141.9670  135.5375  154.6868 C.ar    1  UNL1        0.0385
      9 C         140.6792  136.1904  154.2800 C.ar    1  UNL1        0.0034
     10 C         140.0136  137.1724  155.1978 C.ar    1  UNL1        0.0065
     11 C         140.6356  137.5015  156.5225 C.ar    1  UNL1        0.0768
     12 C         139.9699  138.4835  157.4404 C.ar    1  UNL1        0.2635
     13 O         138.6822  139.1364  157.0336 O.2     1  UNL1       -0.2669
     14 N         140.5920  138.8126  158.7650 N.ar    1  UNL1       -0.2786
     15 C         139.9263  139.7947  159.6830 C.3     1  UNL1        0.1350
     16 C         141.8797  138.1597  159.1718 C.ar    1  UNL1        0.1461
     17 N         142.5454  137.1777  158.2540 N.ar    1  UNL1       -0.2250
     18 C         141.9233  136.8486  156.9292 C.ar    1  UNL1        0.1213
     19 C         143.8549  133.9162  157.1704 C.3     1  UNL1        0.2525
     20 O         143.8768  135.2137  156.4182 O.3     1  UNL1       -0.4699
     21 O         144.3678  139.4763  164.4705 O.3     1  UNL1       -0.4791
     22 C         143.5336  140.0794  165.5616 C.3     1  UNL1        0.1687
     23 C         143.3178  141.5631  165.6075 C.3     1  UNL1        0.0609
     24 C         142.4836  142.1662  166.6986 C.3     1  UNL1        0.0758
     25 N         141.8653  141.2856  167.7438 N.3     1  UNL1       -0.2737
     26 C         142.0812  139.8020  167.6978 C.3     1  UNL1        0.0758
     27 C         142.9154  139.1989  166.6068 C.3     1  UNL1        0.0609
     28 C         141.0312  141.8887  168.8349 C.3     1  UNL1        0.0575
     29 C         140.4323  141.3840  170.1142 C.3     1  UNL1        0.0160
     30 C         139.8515  142.7416  170.3779 C.3     1  UNL1        0.0028
     31 C         140.4503  143.2463  169.0986 C.3     1  UNL1        0.0160
@<TRIPOS>BOND
     1    19    20    1
     2    20     7    1
     3     7     8   ar
     4     8     9   ar
     5     9    10   ar
     6    10    11   ar
     7    11    12   ar
     8    12    13    2
     9    12    14   ar
    10    14    15    1
    11    14    16   ar
    12    16     1    1
    13     1     2   ar
    14     2     3   ar
    15     3     4   ar
    16     4    21    1
    17    21    22    1
    18    22    23    1
    19    23    24    1
    20    24    25    1
    21    25    28    1
    22    28    29    1
    23    29    30    1
    24    30    31    1
    25    25    26    1
    26    26    27    1
    27     4     5   ar
    28     5     6   ar
    29    16    17   ar
    30    17    18   ar
    31    18     7   ar
    32    18    11   ar
    33     6     1   ar
    34    27    22    1
    35    31    28    1
@<TRIPOS>MOLECULE
*****
 31 35 0 0 0
SMALL
GASTEIGER

@<TRIPOS>ATOM
      1 C         141.6477  138.9719  161.7227 C.ar    1  UNL1        0.0344
      2 C         141.1133  139.6743  160.5098 C.ar    1  UNL1        0.0061
      3 C         141.6035  139.2918  159.1448 C.ar    1  UNL1        0.0370
      4 C         142.6280  138.2069  158.9926 C.ar    1  UNL1        0.1384
      5 C         143.1624  137.5045  160.2055 C.ar    1  UNL1        0.0370
      6 C         142.6723  137.8870  161.5705 C.ar    1  UNL1        0.0061
      7 C         142.1157  141.8358  166.0331 C.ar    1  UNL1        0.1564
      8 C         141.6254  142.2183  167.3981 C.ar    1  UNL1        0.0385
      9 C         140.4110  141.5515  167.9730 C.ar    1  UNL1        0.0034
     10 C         139.6868  140.5021  167.1829 C.ar    1  UNL1        0.0065
     11 C         140.1771  140.1196  165.8179 C.ar    1  UNL1        0.0768
     12 C         139.4529  139.0702  165.0277 C.ar    1  UNL1        0.2635
     13 O         138.2384  138.4033  165.6026 O.2     1  UNL1       -0.2669
     14 N         139.9431  138.6876  163.6627 N.ar    1  UNL1       -0.2786
     15 C         139.2189  137.6382  162.8725 C.3     1  UNL1        0.1350
     16 C         141.1575  139.3545  163.0878 C.ar    1  UNL1        0.1461
     17 N         141.8817  140.4038  163.8779 N.ar    1  UNL1       -0.2250
     18 C         141.3915  140.7864  165.2430 C.ar    1  UNL1        0.1213
     19 C         143.1756  143.6709  164.5302 C.3     1  UNL1        0.2525
     20 O         143.3301  142.5026  165.4582 O.3     1  UNL1       -0.4699
     21 O         143.1183  137.8243  157.6275 O.3     1  UNL1       -0.4791
     22 C         142.7518  136.4913  157.0454 C.3     1  UNL1        0.1687
     23 C         141.6638  136.3954  156.0172 C.3     1  UNL1        0.0609
     24 C         141.2974  135.0624  155.4351 C.3     1  UNL1        0.0758
     25 N         142.0190  133.8253  155.8812 N.3     1  UNL1       -0.2737
     26 C         143.1070  133.9212  156.9093 C.3     1  UNL1        0.0758
     27 C         143.4734  135.2542  157.4914 C.3     1  UNL1        0.0609
     28 C         141.6526  132.4923  155.2991 C.3     1  UNL1        0.0575
     29 C         141.9498  131.0642  155.6490 C.3     1  UNL1        0.0160
     30 C         141.1344  130.6072  154.4758 C.3     1  UNL1        0.0028
     31 C         140.8373  132.0351  154.1259 C.3     1  UNL1        0.0160
@<TRIPOS>BOND
     1    19    20    1
     2    20     7    1
     3     7     8   ar
     4     8     9   ar
     5     9    10   ar
     6    10    11   ar
     7    11    12   ar
     8    12    13    2
     9    12    14   ar
    10    14    15    1
    11    14    16   ar
    12    16     1    1
    13     1     2   ar
    14     2     3   ar
    15     3     4   ar
    16     4    21    1
    17    21    22    1
    18    22    23    1
    19    23    24    1
    20    24    25    1
    21    25    28    1
    22    28    29    1
    23    29    30    1
    24    30    31    1
    25    25    26    1
    26    26    27    1
    27     4     5   ar
    28     5     6   ar
    29    16    17   ar
    30    17    18   ar
    31    18     7   ar
    32    18    11   ar
    33     6     1   ar
    34    27    22    1
    35    31    28    1
@<TRIPOS>MOLECULE
*****
 31 35 0 0 0
SMALL
GASTEIGER

@<TRIPOS>ATOM
      1 C         140.5700  138.8338  158.4424 C.ar    1  UNL1        0.0344
      2 C         139.7102  138.1266  157.4371 C.ar    1  UNL1        0.0061
      3 C         140.3232  137.1405  156.4875 C.ar    1  UNL1        0.0370
      4 C         141.7960  136.8615  156.5433 C.ar    1  UNL1        0.1384
      5 C         142.6557  137.5687  157.5487 C.ar    1  UNL1        0.0370
      6 C         142.0427  138.5549  158.4982 C.ar    1  UNL1        0.0061
      7 C         138.3851  139.8982  163.0352 C.ar    1  UNL1        0.1564
      8 C         137.7721  140.8844  163.9847 C.ar    1  UNL1        0.0385
      9 C         137.6385  142.3246  163.5873 C.ar    1  UNL1        0.0034
     10 C         138.1179  142.7787  162.2405 C.ar    1  UNL1        0.0065
     11 C         138.7309  141.7925  161.2910 C.ar    1  UNL1        0.0768
     12 C         139.2103  142.2465  159.9441 C.ar    1  UNL1        0.2635
     13 O         139.0767  143.6867  159.5468 O.2     1  UNL1       -0.2669
     14 N         139.8233  141.2603  158.9946 N.ar    1  UNL1       -0.2786
     15 C         140.3027  141.7143  157.6477 C.3     1  UNL1        0.1350
     16 C         139.9569  139.8200  159.3920 C.ar    1  UNL1        0.1461
     17 N         139.4775  139.3660  160.7388 N.ar    1  UNL1       -0.2250
     18 C         138.8645  140.3522  161.6884 C.ar    1  UNL1        0.1213
     19 C         138.8123  138.0975  164.8587 C.3     1  UNL1        0.2525
     20 O         138.5187  138.4580  163.4325 O.3     1  UNL1       -0.4699
     21 O         142.4090  135.8753  155.5937 O.3     1  UNL1       -0.4791
     22 C         142.7063  134.4782  156.0519 C.3     1  UNL1        0.1687
     23 C         143.8193  134.2294  157.0264 C.3     1  UNL1        0.0609
     24 C         144.1166  132.8324  157.4846 C.3     1  UNL1        0.0758
     25 N         143.3010  131.6842  156.9682 N.3     1  UNL1       -0.2737
     26 C         142.1882  131.9331  155.9938 C.3     1  UNL1        0.0758
     27 C         141.8908  133.3301  155.5356 C.3     1  UNL1        0.0609
     28 C         143.5983  130.2872  157.4264 C.3     1  UNL1        0.0575
     29 C         144.5403  129.6747  158.4203 C.3     1  UNL1        0.0160
     30 C         144.0188  128.3115  158.0743 C.3     1  UNL1        0.0028
     31 C         143.0770  128.9239  157.0805 C.3     1  UNL1        0.0160
@<TRIPOS>BOND
     1    19    20    1
     2    20     7    1
     3     7     8   ar
     4     8     9   ar
     5     9    10   ar
     6    10    11   ar
     7    11    12   ar
     8    12    13    2
     9    12    14   ar
    10    14    15    1
    11    14    16   ar
    12    16     1    1
    13     1     2   ar
    14     2     3   ar
    15     3     4   ar
    16     4    21    1
    17    21    22    1
    18    22    23    1
    19    23    24    1
    20    24    25    1
    21    25    28    1
    22    28    29    1
    23    29    30    1
    24    30    31    1
    25    25    26    1
    26    26    27    1
    27     4     5   ar
    28     5     6   ar
    29    16    17   ar
    30    17    18   ar
    31    18     7   ar
    32    18    11   ar
    33     6     1   ar
    34    27    22    1
    35    31    28    1
@<TRIPOS>MOLECULE
*****
 31 35 0 0 0
SMALL
GASTEIGER

@<TRIPOS>ATOM
      1 C         141.6392  139.4793  163.6327 C.ar    1  UNL1        0.0344
      2 C         141.2879  140.4022  162.5036 C.ar    1  UNL1        0.0061
      3 C         141.9921  140.2762  161.1852 C.ar    1  UNL1        0.0370
      4 C         143.0475  139.2273  160.9959 C.ar    1  UNL1        0.1384
      5 C         143.3988  138.3045  162.1250 C.ar    1  UNL1        0.0370
      6 C         142.6946  138.4304  163.4434 C.ar    1  UNL1        0.0061
      7 C         141.5421  141.1940  168.5369 C.ar    1  UNL1        0.1564
      8 C         140.8378  141.3200  169.8552 C.ar    1  UNL1        0.0385
      9 C         139.4779  140.7146  170.0400 C.ar    1  UNL1        0.0034
     10 C         138.8222  139.9832  168.9064 C.ar    1  UNL1        0.0065
     11 C         139.5265  139.8573  167.5880 C.ar    1  UNL1        0.0768
     12 C         138.8708  139.1259  166.4543 C.ar    1  UNL1        0.2635
     13 O         137.5109  138.5205  166.6391 O.2     1  UNL1       -0.2669
     14 N         139.5750  138.9999  165.1359 N.ar    1  UNL1       -0.2786
     15 C         138.9194  138.2685  164.0022 C.3     1  UNL1        0.1350
     16 C         140.9350  139.6053  164.9512 C.ar    1  UNL1        0.1461
     17 N         141.5906  140.3367  166.0848 N.ar    1  UNL1       -0.2250
     18 C         140.8864  140.4627  167.4033 C.ar    1  UNL1        0.1213
     19 C         143.6769  142.2804  169.5430 C.3     1  UNL1        0.2525
     20 O         142.9020  141.7994  168.3521 O.3     1  UNL1       -0.4699
     21 O         143.7518  139.1013  159.6775 O.3     1  UNL1       -0.4791
     22 C         142.9712  138.7772  158.4382 C.3     1  UNL1        0.1687
     23 C         142.5508  139.8762  157.5078 C.3     1  UNL1        0.0609
     24 C         141.7702  139.5521  156.2686 C.3     1  UNL1        0.0758
     25 N         141.4101  138.1291  155.9598 N.3     1  UNL1       -0.2737
     26 C         141.8304  137.0302  156.8902 C.3     1  UNL1        0.0758
     27 C         142.6110  137.3543  158.1294 C.3     1  UNL1        0.0609
     28 C         140.6295  137.8050  154.7206 C.3     1  UNL1        0.0575
     29 C         140.8113  138.0642  153.2543 C.3     1  UNL1        0.0160
     30 C         139.5256  137.3466  152.9681 C.3     1  UNL1        0.0028
     31 C         139.3438  137.0874  154.4342 C.3     1  UNL1        0.0160
@<TRIPOS>BOND
     1    19    20    1
     2    20     7    1
     3     7     8   ar
     4     8     9   ar
     5     9    10   ar
     6    10    11   ar
     7    11    12   ar
     8    12    13    2
     9    12    14   ar
    10    14    15    1
    11    14    16   ar
    12    16     1    1
    13     1     2   ar
    14     2     3   ar
    15     3     4   ar
    16     4    21    1
    17    21    22    1
    18    22    23    1
    19    23    24    1
    20    24    25    1
    21    25    28    1
    22    28    29    1
    23    29    30    1
    24    30    31    1
    25    25    26    1
    26    26    27    1
    27     4     5   ar
    28     5     6   ar
    29    16    17   ar
    30    17    18   ar
    31    18     7   ar
    32    18    11   ar
    33     6     1   ar
    34    27    22    1
    35    31    28    1
@<TRIPOS>MOLECULE
*****
 31 35 0 0 0
SMALL
GASTEIGER

@<TRIPOS>ATOM
      1 C         140.3994  140.1596  159.7017 C.ar    1  UNL1        0.0344
      2 C         141.5442  140.5070  158.7969 C.ar    1  UNL1        0.0061
      3 C         141.8005  139.6911  157.5647 C.ar    1  UNL1        0.0370
      4 C         140.9120  138.5278  157.2372 C.ar    1  UNL1        0.1384
      5 C         139.7672  138.1804  158.1420 C.ar    1  UNL1        0.0370
      6 C         139.5109  138.9963  159.3743 C.ar    1  UNL1        0.0061
      7 C         141.2511  141.0858  164.7433 C.ar    1  UNL1        0.1564
      8 C         140.9948  141.9018  165.9755 C.ar    1  UNL1        0.0385
      9 C         140.0563  143.0706  165.9193 C.ar    1  UNL1        0.0034
     10 C         139.3741  143.4234  164.6309 C.ar    1  UNL1        0.0065
     11 C         139.6304  142.6075  163.3987 C.ar    1  UNL1        0.0768
     12 C         138.9482  142.9603  162.1101 C.ar    1  UNL1        0.2635
     13 O         138.0097  144.1290  162.0539 O.2     1  UNL1       -0.2669
     14 N         139.2045  142.1443  160.8779 N.ar    1  UNL1       -0.2786
     15 C         138.5223  142.4971  159.5894 C.3     1  UNL1        0.1350
     16 C         140.1431  140.9755  160.9341 C.ar    1  UNL1        0.1461
     17 N         140.8252  140.6227  162.2225 N.ar    1  UNL1       -0.2250
     18 C         140.5689  141.4387  163.4548 C.ar    1  UNL1        0.1213
     19 C         141.6742  138.5586  165.1720 C.3     1  UNL1        0.2525
     20 O         142.1896  139.9171  164.7995 O.3     1  UNL1       -0.4699
     21 O         141.1683  137.7118  156.0049 O.3     1  UNL1       -0.4791
     22 C         141.7654  136.3409  156.1238 C.3     1  UNL1        0.1687
     23 C         142.9058  136.0989  157.0678 C.3     1  UNL1        0.0609
     24 C         143.5029  134.7280  157.1868 C.3     1  UNL1        0.0758
     25 N         142.9595  133.5991  156.3618 N.3     1  UNL1       -0.2737
     26 C         141.8192  133.8412  155.4180 C.3     1  UNL1        0.0758
     27 C         141.2221  135.2120  155.2990 C.3     1  UNL1        0.0609
     28 C         143.5566  132.2282  156.4808 C.3     1  UNL1        0.0575
     29 C         143.0382  130.8757  156.8710 C.3     1  UNL1        0.0160
     30 C         144.4010  130.2895  156.6491 C.3     1  UNL1        0.0028
     31 C         144.9193  131.6419  156.2590 C.3     1  UNL1        0.0160
@<TRIPOS>BOND
     1    19    20    1
     2    20     7    1
     3     7     8   ar
     4     8     9   ar
     5     9    10   ar
     6    10    11   ar
     7    11    12   ar
     8    12    13    2
     9    12    14   ar
    10    14    15    1
    11    14    16   ar
    12    16     1    1
    13     1     2   ar
    14     2     3   ar
    15     3     4   ar
    16     4    21    1
    17    21    22    1
    18    22    23    1
    19    23    24    1
    20    24    25    1
    21    25    28    1
    22    28    29    1
    23    29    30    1
    24    30    31    1
    25    25    26    1
    26    26    27    1
    27     4     5   ar
    28     5     6   ar
    29    16    17   ar
    30    17    18   ar
    31    18     7   ar
    32    18    11   ar
    33     6     1   ar
    34    27    22    1
    35    31    28    1
@<TRIPOS>MOLECULE
*****
 31 35 0 0 0
SMALL
GASTEIGER

@<TRIPOS>ATOM
      1 C         139.2595  142.3425  160.2460 C.ar    1  UNL1        0.0344
      2 C         138.1789  142.7659  161.1962 C.ar    1  UNL1        0.0061
      3 C         137.7700  141.8593  162.3190 C.ar    1  UNL1        0.0370
      4 C         138.4417  140.5293  162.4917 C.ar    1  UNL1        0.1384
      5 C         139.5223  140.1059  161.5414 C.ar    1  UNL1        0.0370
      6 C         139.9313  141.0125  160.4186 C.ar    1  UNL1        0.0061
      7 C         138.6329  144.0361  155.3737 C.ar    1  UNL1        0.1564
      8 C         139.0418  144.9427  154.2509 C.ar    1  UNL1        0.0385
      9 C         140.1730  145.9093  154.4413 C.ar    1  UNL1        0.0034
     10 C         140.8952  145.9691  155.7546 C.ar    1  UNL1        0.0065
     11 C         140.4863  145.0625  156.8774 C.ar    1  UNL1        0.0768
     12 C         141.2086  145.1223  158.1908 C.ar    1  UNL1        0.2635
     13 O         142.3397  146.0889  158.3812 O.2     1  UNL1       -0.2669
     14 N         140.7996  144.2157  159.3136 N.ar    1  UNL1       -0.2786
     15 C         141.5219  144.2755  160.6269 C.3     1  UNL1        0.1350
     16 C         139.6685  143.2492  159.1231 C.ar    1  UNL1        0.1461
     17 N         138.9462  143.1893  157.8098 N.ar    1  UNL1       -0.2250
     18 C         139.3551  144.0960  156.6869 C.ar    1  UNL1        0.1213
     19 C         137.7703  141.6992  154.6355 C.3     1  UNL1        0.2525
     20 O         137.5017  143.0696  155.1832 O.3     1  UNL1       -0.4699
     21 O         138.0328  139.6226  163.6145 O.3     1  UNL1       -0.4791
     22 C         138.5472  139.8681  165.0020 C.3     1  UNL1        0.1687
     23 C         139.5816  140.9277  165.2418 C.3     1  UNL1        0.0609
     24 C         140.0961  141.1732  166.6293 C.3     1  UNL1        0.0758
     25 N         139.5762  140.3591  167.7769 N.3     1  UNL1       -0.2737
     26 C         138.5419  139.2996  167.5371 C.3     1  UNL1        0.0758
     27 C         138.0274  139.0541  166.1496 C.3     1  UNL1        0.0609
     28 C         140.0907  140.6046  169.1644 C.3     1  UNL1        0.0575
     29 C         140.0277  141.7491  170.1320 C.3     1  UNL1        0.0160
     30 C         140.8182  140.9518  171.1265 C.3     1  UNL1        0.0028
     31 C         140.8812  139.8073  170.1590 C.3     1  UNL1        0.0160
@<TRIPOS>BOND
     1    19    20    1
     2    20     7    1
     3     7     8   ar
     4     8     9   ar
     5     9    10   ar
     6    10    11   ar
     7    11    12   ar
     8    12    13    2
     9    12    14   ar
    10    14    15    1
    11    14    16   ar
    12    16     1    1
    13     1     2   ar
    14     2     3   ar
    15     3     4   ar
    16     4    21    1
    17    21    22    1
    18    22    23    1
    19    23    24    1
    20    24    25    1
    21    25    28    1
    22    28    29    1
    23    29    30    1
    24    30    31    1
    25    25    26    1
    26    26    27    1
    27     4     5   ar
    28     5     6   ar
    29    16    17   ar
    30    17    18   ar
    31    18     7   ar
    32    18    11   ar
    33     6     1   ar
    34    27    22    1
    35    31    28    1
