@<TRIPOS>MOLECULE
*****
 33 38 0 0 0
SMALL
GASTEIGER

@<TRIPOS>ATOM
      1 N         139.6084  139.6784  162.5094 N.pl3   1  UNL1       -0.3425
      2 C         139.5948  139.6119  164.0079 C.ar    1  UNL1        0.1316
      3 N         138.2898  139.6265  164.7474 N.ar    1  UNL1       -0.2093
      4 C         138.2761  139.5600  166.2458 C.ar    1  UNL1        0.2014
      5 N         139.5675  139.4789  167.0048 N.ar    1  UNL1       -0.2050
      6 C         140.8724  139.4643  166.2652 C.ar    1  UNL1        0.1653
      7 C         140.8860  139.5308  164.7668 C.ar    1  UNL1        0.0860
      8 C         142.3159  139.4988  164.3144 C.ar    1  UNL1        0.1065
      9 N         143.1859  139.4126  165.5332 N.ar    1  UNL1       -0.1679
     10 N         142.2938  139.3913  166.7389 N.ar    1  UNL1       -0.2340
     11 H         138.7609  139.7316  162.0113 H       1  UNL1        0.1437
     12 H         140.4649  139.6688  162.0241 H       1  UNL1        0.1437
     13 C         142.7920  139.5450  162.8926 C.ar    1  UNL1        0.0196
     14 C         142.9714  138.2719  162.1201 C.ar    1  UNL1        0.0031
     15 C         143.4476  138.3181  160.6984 C.ar    1  UNL1        0.0193
     16 C         143.7442  139.6375  160.0494 C.ar    1  UNL1        0.0844
     17 N         144.2204  139.6836  158.6276 N.ar    1  UNL1       -0.2117
     18 C         144.5171  141.0030  157.9786 C.ar    1  UNL1        0.2247
     19 C         144.3376  142.2761  158.7512 C.ar    1  UNL1        0.0577
     20 C         143.8615  142.2299  160.1729 C.ar    1  UNL1        0.0063
     21 C         143.5648  140.9106  160.8219 C.ar    1  UNL1        0.0180
     22 C         143.0887  140.8644  162.2436 C.ar    1  UNL1        0.0031
     23 O         144.9932  141.0492  156.5569 O.3     1  UNL1       -0.4640
     24 C         146.3043  141.6985  156.2258 C.3     1  UNL1        0.1678
     25 C         147.4565  141.8935  155.2853 C.3     1  UNL1        0.0473
     26 C         147.4229  142.6280  156.5927 C.3     1  UNL1        0.0473
     27 C         142.7441  139.3110  168.1675 C.3     1  UNL1        0.1292
     28 C         142.3672  140.3938  169.1347 C.3     1  UNL1        0.0295
     29 C         143.0486  141.7284  169.0691 C.3     1  UNL1        0.0341
     30 C         142.6717  142.8113  170.0362 C.3     1  UNL1        0.1422
     31 O         141.6134  142.5594  171.0690 O.3     1  UNL1       -0.3538
     32 C         140.9319  141.2248  171.1346 C.3     1  UNL1        0.1422
     33 C         141.3088  140.1420  170.1674 C.3     1  UNL1        0.0341
@<TRIPOS>BOND
     1     1     2    1
     2     2     3   ar
     3     3     4   ar
     4     4     5   ar
     5     5     6   ar
     6     6     7   ar
     7     7     8   ar
     8     8    13    1
     9    13    14   ar
    10    14    15   ar
    11    15    16   ar
    12    16    17   ar
    13    17    18   ar
    14    18    23    1
    15    23    24    1
    16    24    25    1
    17    25    26    1
    18    18    19   ar
    19    19    20   ar
    20    20    21   ar
    21    21    22   ar
    22     8     9   ar
    23     9    10   ar
    24    10    27    1
    25    27    28    1
    26    28    29    1
    27    29    30    1
    28    30    31    1
    29    31    32    1
    30    32    33    1
    31     7     2   ar
    32    22    13   ar
    33    33    28    1
    34    10     6   ar
    35    21    16   ar
    36    26    24    1
    37     1    11    1
    38     1    12    1
@<TRIPOS>MOLECULE
*****
 33 38 0 0 0
SMALL
GASTEIGER

@<TRIPOS>ATOM
      1 N         138.4329  141.6287  162.7145 N.pl3   1  UNL1       -0.3425
      2 C         138.8965  141.1764  164.0675 C.ar    1  UNL1        0.1316
      3 N         138.1737  140.0698  164.7767 N.ar    1  UNL1       -0.2093
      4 C         138.6373  139.6174  166.1296 C.ar    1  UNL1        0.2014
      5 N         139.8238  140.2717  166.7733 N.ar    1  UNL1       -0.2050
      6 C         140.5465  141.3783  166.0641 C.ar    1  UNL1        0.1653
      7 C         140.0829  141.8306  164.7112 C.ar    1  UNL1        0.0860
      8 C         140.9880  142.9373  164.2571 C.ar    1  UNL1        0.1065
      9 N         142.0110  143.1689  165.3294 N.ar    1  UNL1       -0.1679
     10 N         141.7382  142.2054  166.4462 N.ar    1  UNL1       -0.2340
     11 H         137.6542  141.1993  162.2920 H       1  UNL1        0.1437
     12 H         138.9073  142.3550  162.2490 H       1  UNL1        0.1437
     13 C         140.8877  143.6816  162.9586 C.ar    1  UNL1        0.0196
     14 C         139.9743  144.8656  162.8415 C.ar    1  UNL1        0.0031
     15 C         139.8740  145.6099  161.5431 C.ar    1  UNL1        0.0193
     16 C         140.6871  145.1702  160.3618 C.ar    1  UNL1        0.0844
     17 N         140.5868  145.9145  159.0633 N.ar    1  UNL1       -0.2117
     18 C         141.3999  145.4748  157.8820 C.ar    1  UNL1        0.2247
     19 C         142.3133  144.2907  157.9991 C.ar    1  UNL1        0.0577
     20 C         142.4136  143.5464  159.2976 C.ar    1  UNL1        0.0063
     21 C         141.6005  143.9861  160.4789 C.ar    1  UNL1        0.0180
     22 C         141.7008  143.2419  161.7773 C.ar    1  UNL1        0.0031
     23 O         141.2996  146.2191  156.5836 O.3     1  UNL1       -0.4640
     24 C         139.9601  146.6638  156.0755 C.3     1  UNL1        0.1678
     25 C         138.7142  146.3909  155.2860 C.3     1  UNL1        0.0473
     26 C         138.8860  147.7069  155.9850 C.3     1  UNL1        0.0473
     27 C         142.5197  142.0894  167.7212 C.3     1  UNL1        0.1292
     28 C         141.8099  142.1272  169.0421 C.3     1  UNL1        0.0295
     29 C         140.6589  143.0666  169.2483 C.3     1  UNL1        0.0341
     30 C         139.9491  143.1044  170.5691 C.3     1  UNL1        0.1422
     31 O         140.3903  142.2029  171.6838 O.3     1  UNL1       -0.3538
     32 C         141.5414  141.2635  171.4776 C.3     1  UNL1        0.1422
     33 C         142.2512  141.2256  170.1568 C.3     1  UNL1        0.0341
@<TRIPOS>BOND
     1     1     2    1
     2     2     3   ar
     3     3     4   ar
     4     4     5   ar
     5     5     6   ar
     6     6     7   ar
     7     7     8   ar
     8     8    13    1
     9    13    14   ar
    10    14    15   ar
    11    15    16   ar
    12    16    17   ar
    13    17    18   ar
    14    18    23    1
    15    23    24    1
    16    24    25    1
    17    25    26    1
    18    18    19   ar
    19    19    20   ar
    20    20    21   ar
    21    21    22   ar
    22     8     9   ar
    23     9    10   ar
    24    10    27    1
    25    27    28    1
    26    28    29    1
    27    29    30    1
    28    30    31    1
    29    31    32    1
    30    32    33    1
    31     7     2   ar
    32    22    13   ar
    33    33    28    1
    34    10     6   ar
    35    21    16   ar
    36    26    24    1
    37     1    11    1
    38     1    12    1
@<TRIPOS>MOLECULE
*****
 33 38 0 0 0
SMALL
GASTEIGER

@<TRIPOS>ATOM
      1 N         137.3667  140.2089  161.0145 N.pl3   1  UNL1       -0.3425
      2 C         138.0874  139.9785  159.7193 C.ar    1  UNL1        0.1316
      3 N         137.4714  140.4287  158.4279 N.ar    1  UNL1       -0.2093
      4 C         138.1922  140.1983  157.1327 C.ar    1  UNL1        0.2014
      5 N         139.5289  139.5177  157.1291 N.ar    1  UNL1       -0.2050
      6 C         140.1449  139.0676  158.4205 C.ar    1  UNL1        0.1653
      7 C         139.4241  139.2980  159.7157 C.ar    1  UNL1        0.0860
      8 C         140.2736  138.7483  160.8231 C.ar    1  UNL1        0.1065
      9 N         141.5194  138.1782  160.2123 N.ar    1  UNL1       -0.1679
     10 N         141.4398  138.3755  158.7275 N.ar    1  UNL1       -0.2340
     11 H         136.4894  140.6556  161.0169 H       1  UNL1        0.1437
     12 H         137.7710  139.9135  161.8621 H       1  UNL1        0.1437
     13 C         139.9365  138.7657  162.2846 C.ar    1  UNL1        0.0196
     14 C         139.1477  137.6404  162.8858 C.ar    1  UNL1        0.0031
     15 C         138.8106  137.6579  164.3473 C.ar    1  UNL1        0.0193
     16 C         139.2623  138.8006  165.2076 C.ar    1  UNL1        0.0844
     17 N         138.9252  138.8181  166.6692 N.ar    1  UNL1       -0.2117
     18 C         139.3769  139.9608  167.5295 C.ar    1  UNL1        0.2247
     19 C         140.1657  141.0861  166.9282 C.ar    1  UNL1        0.0577
     20 C         140.5028  141.0687  165.4667 C.ar    1  UNL1        0.0063
     21 C         140.0511  139.9259  164.6064 C.ar    1  UNL1        0.0180
     22 C         140.3882  139.9085  163.1449 C.ar    1  UNL1        0.0031
     23 O         139.0398  139.9783  168.9910 O.3     1  UNL1       -0.4640
     24 C         139.6905  140.9794  169.8989 C.3     1  UNL1        0.1678
     25 C         140.6815  141.3038  170.9772 C.3     1  UNL1        0.0473
     26 C         139.8267  142.3891  170.3930 C.3     1  UNL1        0.0473
     27 C         142.4737  137.9546  157.7255 C.3     1  UNL1        0.1292
     28 C         142.3218  136.6552  156.9917 C.3     1  UNL1        0.0295
     29 C         143.2576  135.5184  157.2779 C.3     1  UNL1        0.0341
     30 C         143.1056  134.2190  156.5442 C.3     1  UNL1        0.1422
     31 O         142.0179  134.0564  155.5242 O.3     1  UNL1       -0.3538
     32 C         141.0820  135.1932  155.2380 C.3     1  UNL1        0.1422
     33 C         141.2340  136.4926  155.9717 C.3     1  UNL1        0.0341
@<TRIPOS>BOND
     1     1     2    1
     2     2     3   ar
     3     3     4   ar
     4     4     5   ar
     5     5     6   ar
     6     6     7   ar
     7     7     8   ar
     8     8    13    1
     9    13    14   ar
    10    14    15   ar
    11    15    16   ar
    12    16    17   ar
    13    17    18   ar
    14    18    23    1
    15    23    24    1
    16    24    25    1
    17    25    26    1
    18    18    19   ar
    19    19    20   ar
    20    20    21   ar
    21    21    22   ar
    22     8     9   ar
    23     9    10   ar
    24    10    27    1
    25    27    28    1
    26    28    29    1
    27    29    30    1
    28    30    31    1
    29    31    32    1
    30    32    33    1
    31     7     2   ar
    32    22    13   ar
    33    33    28    1
    34    10     6   ar
    35    21    16   ar
    36    26    24    1
    37     1    11    1
    38     1    12    1
@<TRIPOS>MOLECULE
*****
 33 38 0 0 0
SMALL
GASTEIGER

@<TRIPOS>ATOM
      1 N         139.3598  137.6773  163.8417 N.pl3   1  UNL1       -0.3425
      2 C         139.3724  138.5283  165.0768 C.ar    1  UNL1        0.1316
      3 N         138.3186  138.3406  166.1277 N.ar    1  UNL1       -0.2093
      4 C         138.3311  139.1916  167.3628 C.ar    1  UNL1        0.2014
      5 N         139.3975  140.2304  167.5470 N.ar    1  UNL1       -0.2050
      6 C         140.4512  140.4181  166.4962 C.ar    1  UNL1        0.1653
      7 C         140.4387  139.5670  165.2611 C.ar    1  UNL1        0.0860
      8 C         141.5989  139.9775  164.4035 C.ar    1  UNL1        0.1065
      9 N         142.3286  141.0822  165.1087 N.ar    1  UNL1       -0.1679
     10 N         141.6193  141.3545  166.4020 N.ar    1  UNL1       -0.2340
     11 H         138.6600  136.9955  163.7208 H       1  UNL1        0.1437
     12 H         140.0515  137.8005  163.1520 H       1  UNL1        0.1437
     13 C         141.9652  139.3868  163.0742 C.ar    1  UNL1        0.0196
     14 C         143.1173  138.4320  162.9696 C.ar    1  UNL1        0.0031
     15 C         143.4835  137.8414  161.6403 C.ar    1  UNL1        0.0193
     16 C         142.6977  138.2057  160.4156 C.ar    1  UNL1        0.0844
     17 N         143.0640  137.6150  159.0863 N.ar    1  UNL1       -0.2117
     18 C         142.2782  137.9793  157.8616 C.ar    1  UNL1        0.2247
     19 C         141.1261  138.9342  157.9663 C.ar    1  UNL1        0.0577
     20 C         140.7598  139.5248  159.2956 C.ar    1  UNL1        0.0063
     21 C         141.5457  139.1605  160.5203 C.ar    1  UNL1        0.0180
     22 C         141.1794  139.7511  161.8495 C.ar    1  UNL1        0.0031
     23 O         142.6444  137.3887  156.5324 O.3     1  UNL1       -0.4640
     24 C         142.8507  135.9088  156.4004 C.3     1  UNL1        0.1678
     25 C         143.7022  134.6920  156.6108 C.3     1  UNL1        0.0473
     26 C         142.3564  134.5624  155.9613 C.3     1  UNL1        0.0473
     27 C         142.0095  142.3828  167.4221 C.3     1  UNL1        0.1292
     28 C         141.5086  142.2689  168.8313 C.3     1  UNL1        0.0295
     29 C         140.3943  143.1543  169.3051 C.3     1  UNL1        0.0341
     30 C         139.8934  143.0404  170.7144 C.3     1  UNL1        0.1422
     31 O         140.5067  142.0411  171.6499 O.3     1  UNL1       -0.3538
     32 C         141.6210  141.1557  171.1762 C.3     1  UNL1        0.1422
     33 C         142.1219  141.2696  169.7669 C.3     1  UNL1        0.0341
@<TRIPOS>BOND
     1     1     2    1
     2     2     3   ar
     3     3     4   ar
     4     4     5   ar
     5     5     6   ar
     6     6     7   ar
     7     7     8   ar
     8     8    13    1
     9    13    14   ar
    10    14    15   ar
    11    15    16   ar
    12    16    17   ar
    13    17    18   ar
    14    18    23    1
    15    23    24    1
    16    24    25    1
    17    25    26    1
    18    18    19   ar
    19    19    20   ar
    20    20    21   ar
    21    21    22   ar
    22     8     9   ar
    23     9    10   ar
    24    10    27    1
    25    27    28    1
    26    28    29    1
    27    29    30    1
    28    30    31    1
    29    31    32    1
    30    32    33    1
    31     7     2   ar
    32    22    13   ar
    33    33    28    1
    34    10     6   ar
    35    21    16   ar
    36    26    24    1
    37     1    11    1
    38     1    12    1
@<TRIPOS>MOLECULE
*****
 33 38 0 0 0
SMALL
GASTEIGER

@<TRIPOS>ATOM
      1 N         144.0071  140.9246  162.8416 N.pl3   1  UNL1       -0.3425
      2 C         143.5294  140.2423  164.0891 C.ar    1  UNL1        0.1316
      3 N         144.3180  139.1074  164.6722 N.ar    1  UNL1       -0.2093
      4 C         143.8403  138.4252  165.9197 C.ar    1  UNL1        0.2014
      5 N         142.5740  138.8780  166.5842 N.ar    1  UNL1       -0.2050
      6 C         141.7854  140.0129  166.0011 C.ar    1  UNL1        0.1653
      7 C         142.2631  140.6951  164.7536 C.ar    1  UNL1        0.0860
      8 C         141.2824  141.7777  164.4127 C.ar    1  UNL1        0.1065
      9 N         140.1986  141.7646  165.4496 N.ar    1  UNL1       -0.1679
     10 N         140.5094  140.6739  166.4313 N.ar    1  UNL1       -0.2340
     11 H         144.8382  140.6274  162.4055 H       1  UNL1        0.1437
     12 H         143.4895  141.6695  162.4589 H       1  UNL1        0.1437
     13 C         141.3701  142.7098  163.2407 C.ar    1  UNL1        0.0196
     14 C         142.1192  144.0033  163.3656 C.ar    1  UNL1        0.0031
     15 C         142.2070  144.9354  162.1936 C.ar    1  UNL1        0.0193
     16 C         141.5456  144.5739  160.8967 C.ar    1  UNL1        0.0844
     17 N         141.6333  145.5060  159.7247 N.ar    1  UNL1       -0.2117
     18 C         140.9720  145.1445  158.4278 C.ar    1  UNL1        0.2247
     19 C         140.2228  143.8509  158.3030 C.ar    1  UNL1        0.0577
     20 C         140.1351  142.9189  159.4750 C.ar    1  UNL1        0.0063
     21 C         140.7965  143.2804  160.7718 C.ar    1  UNL1        0.0180
     22 C         140.7088  142.3483  161.9438 C.ar    1  UNL1        0.0031
     23 O         141.0597  146.0765  157.2558 O.3     1  UNL1       -0.4640
     24 C         139.8450  146.3430  156.4169 C.3     1  UNL1        0.1678
     25 C         138.8470  147.3057  155.8450 C.3     1  UNL1        0.0473
     26 C         138.7393  145.8418  155.5359 C.3     1  UNL1        0.0473
     27 C         139.6885  140.3084  167.6323 C.3     1  UNL1        0.1292
     28 C         140.0083  140.9072  168.9699 C.3     1  UNL1        0.0295
     29 C         140.3616  140.0175  170.1247 C.3     1  UNL1        0.0341
     30 C         140.6814  140.6163  171.4623 C.3     1  UNL1        0.1422
     31 O         140.6479  142.1048  171.6450 O.3     1  UNL1       -0.3538
     32 C         140.2946  142.9944  170.4902 C.3     1  UNL1        0.1422
     33 C         139.9748  142.3956  169.1526 C.3     1  UNL1        0.0341
@<TRIPOS>BOND
     1     1     2    1
     2     2     3   ar
     3     3     4   ar
     4     4     5   ar
     5     5     6   ar
     6     6     7   ar
     7     7     8   ar
     8     8    13    1
     9    13    14   ar
    10    14    15   ar
    11    15    16   ar
    12    16    17   ar
    13    17    18   ar
    14    18    23    1
    15    23    24    1
    16    24    25    1
    17    25    26    1
    18    18    19   ar
    19    19    20   ar
    20    20    21   ar
    21    21    22   ar
    22     8     9   ar
    23     9    10   ar
    24    10    27    1
    25    27    28    1
    26    28    29    1
    27    29    30    1
    28    30    31    1
    29    31    32    1
    30    32    33    1
    31     7     2   ar
    32    22    13   ar
    33    33    28    1
    34    10     6   ar
    35    21    16   ar
    36    26    24    1
    37     1    11    1
    38     1    12    1
@<TRIPOS>MOLECULE
*****
 33 38 0 0 0
SMALL
GASTEIGER

@<TRIPOS>ATOM
      1 N         141.9117  145.2783  161.1735 N.pl3   1  UNL1       -0.3425
      2 C         141.4316  144.9520  159.7903 C.ar    1  UNL1        0.1316
      3 N         142.1661  145.4854  158.5962 N.ar    1  UNL1       -0.2093
      4 C         141.6861  145.1591  157.2131 C.ar    1  UNL1        0.2014
      5 N         140.4714  144.2994  157.0241 N.ar    1  UNL1       -0.2050
      6 C         139.7369  143.7661  158.2182 C.ar    1  UNL1        0.1653
      7 C         140.2170  144.0924  159.6014 C.ar    1  UNL1        0.0860
      8 C         139.2951  143.4283  160.5807 C.ar    1  UNL1        0.1065
      9 N         138.2452  142.6916  159.8029 N.ar    1  UNL1       -0.1679
     10 N         138.5183  142.9003  158.3428 N.ar    1  UNL1       -0.2340
     11 H         142.7088  145.8425  161.2975 H       1  UNL1        0.1437
     12 H         141.4295  144.9282  161.9572 H       1  UNL1        0.1437
     13 C         139.4039  143.4902  162.0755 C.ar    1  UNL1        0.0196
     14 C         138.6145  144.5085  162.8435 C.ar    1  UNL1        0.0031
     15 C         138.7234  144.5703  164.3383 C.ar    1  UNL1        0.0193
     16 C         139.6217  143.6138  165.0650 C.ar    1  UNL1        0.0844
     17 N         139.7306  143.6756  166.5598 N.ar    1  UNL1       -0.2117
     18 C         140.6289  142.7191  167.2866 C.ar    1  UNL1        0.2247
     19 C         141.4184  141.7008  166.5185 C.ar    1  UNL1        0.0577
     20 C         141.3095  141.6390  165.0238 C.ar    1  UNL1        0.0063
     21 C         140.4112  142.5955  164.2970 C.ar    1  UNL1        0.0180
     22 C         140.3023  142.5337  162.8023 C.ar    1  UNL1        0.0031
     23 O         140.7378  142.7809  168.7813 O.3     1  UNL1       -0.4640
     24 C         142.0678  142.5802  169.4454 C.3     1  UNL1        0.1678
     25 C         143.1108  143.0276  170.4262 C.3     1  UNL1        0.0473
     26 C         143.3284  141.7851  169.6147 C.3     1  UNL1        0.0473
     27 C         137.7139  142.3415  157.2067 C.3     1  UNL1        0.1292
     28 C         138.0369  140.9844  156.6553 C.3     1  UNL1        0.0295
     29 C         137.3503  140.4963  155.4142 C.3     1  UNL1        0.0341
     30 C         137.6734  139.1393  154.8628 C.3     1  UNL1        0.1422
     31 O         138.6830  138.2703  155.5525 O.3     1  UNL1       -0.3538
     32 C         139.3696  138.7585  156.7936 C.3     1  UNL1        0.1422
     33 C         139.0466  140.1155  157.3450 C.3     1  UNL1        0.0341
@<TRIPOS>BOND
     1     1     2    1
     2     2     3   ar
     3     3     4   ar
     4     4     5   ar
     5     5     6   ar
     6     6     7   ar
     7     7     8   ar
     8     8    13    1
     9    13    14   ar
    10    14    15   ar
    11    15    16   ar
    12    16    17   ar
    13    17    18   ar
    14    18    23    1
    15    23    24    1
    16    24    25    1
    17    25    26    1
    18    18    19   ar
    19    19    20   ar
    20    20    21   ar
    21    21    22   ar
    22     8     9   ar
    23     9    10   ar
    24    10    27    1
    25    27    28    1
    26    28    29    1
    27    29    30    1
    28    30    31    1
    29    31    32    1
    30    32    33    1
    31     7     2   ar
    32    22    13   ar
    33    33    28    1
    34    10     6   ar
    35    21    16   ar
    36    26    24    1
    37     1    11    1
    38     1    12    1
@<TRIPOS>MOLECULE
*****
 33 38 0 0 0
SMALL
GASTEIGER

@<TRIPOS>ATOM
      1 N         138.4963  140.2060  159.5761 N.pl3   1  UNL1       -0.3425
      2 C         139.1151  139.5763  158.3635 C.ar    1  UNL1        0.1316
      3 N         138.4847  139.7657  157.0156 N.ar    1  UNL1       -0.2093
      4 C         139.1035  139.1360  155.8030 C.ar    1  UNL1        0.2014
      5 N         140.3528  138.3168  155.9383 N.ar    1  UNL1       -0.2050
      6 C         140.9831  138.1273  157.2860 C.ar    1  UNL1        0.1653
      7 C         140.3643  138.7570  158.4987 C.ar    1  UNL1        0.0860
      8 C         141.2052  138.3978  159.6878 C.ar    1  UNL1        0.1065
      9 N         142.3437  137.5460  159.2100 N.ar    1  UNL1       -0.1679
     10 N         142.2065  137.3789  157.7257 N.ar    1  UNL1       -0.2340
     11 H         137.6764  140.7437  159.4874 H       1  UNL1        0.1437
     12 H         138.9101  140.0816  160.4607 H       1  UNL1        0.1437
     13 C         140.9520  138.8168  161.1057 C.ar    1  UNL1        0.0196
     14 C         141.6231  140.0394  161.6577 C.ar    1  UNL1        0.0031
     15 C         141.3699  140.4583  163.0755 C.ar    1  UNL1        0.0193
     16 C         140.4455  139.6546  163.9414 C.ar    1  UNL1        0.0844
     17 N         140.1923  140.0736  165.3593 N.ar    1  UNL1       -0.2117
     18 C         139.2679  139.2699  166.2251 C.ar    1  UNL1        0.2247
     19 C         138.5967  138.0473  165.6730 C.ar    1  UNL1        0.0577
     20 C         138.8500  137.6283  164.2551 C.ar    1  UNL1        0.0063
     21 C         139.7744  138.4320  163.3893 C.ar    1  UNL1        0.0180
     22 C         140.0276  138.0131  161.9715 C.ar    1  UNL1        0.0031
     23 O         139.0146  139.6888  167.6429 O.3     1  UNL1       -0.4640
     24 C         140.1305  140.2594  168.4671 C.3     1  UNL1        0.1678
     25 C         140.6721  141.3499  169.3432 C.3     1  UNL1        0.0473
     26 C         141.5217  140.1572  169.0186 C.3     1  UNL1        0.0473
     27 C         143.1304  136.6000  156.8370 C.3     1  UNL1        0.1292
     28 C         142.8814  135.1415  156.5904 C.3     1  UNL1        0.0295
     29 C         141.8498  134.7158  155.5881 C.3     1  UNL1        0.0341
     30 C         141.6008  133.2573  155.3416 C.3     1  UNL1        0.1422
     31 O         142.3833  132.2246  156.0973 O.3     1  UNL1       -0.3538
     32 C         143.4149  132.6503  157.0997 C.3     1  UNL1        0.1422
     33 C         143.6639  134.1088  157.3462 C.3     1  UNL1        0.0341
@<TRIPOS>BOND
     1     1     2    1
     2     2     3   ar
     3     3     4   ar
     4     4     5   ar
     5     5     6   ar
     6     6     7   ar
     7     7     8   ar
     8     8    13    1
     9    13    14   ar
    10    14    15   ar
    11    15    16   ar
    12    16    17   ar
    13    17    18   ar
    14    18    23    1
    15    23    24    1
    16    24    25    1
    17    25    26    1
    18    18    19   ar
    19    19    20   ar
    20    20    21   ar
    21    21    22   ar
    22     8     9   ar
    23     9    10   ar
    24    10    27    1
    25    27    28    1
    26    28    29    1
    27    29    30    1
    28    30    31    1
    29    31    32    1
    30    32    33    1
    31     7     2   ar
    32    22    13   ar
    33    33    28    1
    34    10     6   ar
    35    21    16   ar
    36    26    24    1
    37     1    11    1
    38     1    12    1
@<TRIPOS>MOLECULE
*****
 33 38 0 0 0
SMALL
GASTEIGER

@<TRIPOS>ATOM
      1 N         138.0620  142.6898  161.5389 N.pl3   1  UNL1       -0.3425
      2 C         138.5016  143.0848  162.9176 C.ar    1  UNL1        0.1316
      3 N         137.9637  144.3359  163.5466 N.ar    1  UNL1       -0.2093
      4 C         138.4032  144.7309  164.9253 C.ar    1  UNL1        0.2014
      5 N         139.3807  143.8748  165.6749 N.ar    1  UNL1       -0.2050
      6 C         139.9185  142.6239  165.0459 C.ar    1  UNL1        0.1653
      7 C         139.4790  142.2289  163.6672 C.ar    1  UNL1        0.0860
      8 C         140.1751  140.9498  163.3074 C.ar    1  UNL1        0.1065
      9 N         141.0450  140.5544  164.4637 N.ar    1  UNL1       -0.1679
     10 N         140.8864  141.5890  165.5381 N.ar    1  UNL1       -0.2340
     11 H         137.4205  143.2516  161.0469 H       1  UNL1        0.1437
     12 H         138.4150  141.8687  161.1261 H       1  UNL1        0.1437
     13 C         140.0274  140.1982  162.0176 C.ar    1  UNL1        0.0196
     14 C         138.9298  139.1882  161.8597 C.ar    1  UNL1        0.0031
     15 C         138.7821  138.4366  160.5700 C.ar    1  UNL1        0.0193
     16 C         139.7320  138.6952  159.4383 C.ar    1  UNL1        0.0844
     17 N         139.5843  137.9436  158.1485 N.ar    1  UNL1       -0.2117
     18 C         140.5342  138.2021  157.0168 C.ar    1  UNL1        0.2247
     19 C         141.6318  139.2123  157.1748 C.ar    1  UNL1        0.0577
     20 C         141.7795  139.9638  158.4645 C.ar    1  UNL1        0.0063
     21 C         140.8296  139.7053  159.5962 C.ar    1  UNL1        0.0180
     22 C         140.9773  140.4568  160.8859 C.ar    1  UNL1        0.0031
     23 O         140.3865  137.4506  155.7271 O.3     1  UNL1       -0.4640
     24 C         141.3311  136.3327  155.3981 C.3     1  UNL1        0.1678
     25 C         142.4872  135.7999  154.6046 C.3     1  UNL1        0.0473
     26 C         141.8108  134.9292  155.6216 C.3     1  UNL1        0.0473
     27 C         141.5748  141.5887  166.8709 C.3     1  UNL1        0.1292
     28 C         140.7657  141.6405  168.1329 C.3     1  UNL1        0.0295
     29 C         139.9156  140.4693  168.5273 C.3     1  UNL1        0.0341
     30 C         139.1065  140.5210  169.7893 C.3     1  UNL1        0.1422
     31 O         139.1477  141.7439  170.6570 O.3     1  UNL1       -0.3538
     32 C         139.9979  142.9151  170.2626 C.3     1  UNL1        0.1422
     33 C         140.8069  142.8634  169.0006 C.3     1  UNL1        0.0341
@<TRIPOS>BOND
     1     1     2    1
     2     2     3   ar
     3     3     4   ar
     4     4     5   ar
     5     5     6   ar
     6     6     7   ar
     7     7     8   ar
     8     8    13    1
     9    13    14   ar
    10    14    15   ar
    11    15    16   ar
    12    16    17   ar
    13    17    18   ar
    14    18    23    1
    15    23    24    1
    16    24    25    1
    17    25    26    1
    18    18    19   ar
    19    19    20   ar
    20    20    21   ar
    21    21    22   ar
    22     8     9   ar
    23     9    10   ar
    24    10    27    1
    25    27    28    1
    26    28    29    1
    27    29    30    1
    28    30    31    1
    29    31    32    1
    30    32    33    1
    31     7     2   ar
    32    22    13   ar
    33    33    28    1
    34    10     6   ar
    35    21    16   ar
    36    26    24    1
    37     1    11    1
    38     1    12    1
@<TRIPOS>MOLECULE
*****
 33 38 0 0 0
SMALL
GASTEIGER

@<TRIPOS>ATOM
      1 N         142.9864  142.7665  160.5724 N.pl3   1  UNL1       -0.3425
      2 C         142.4996  143.2930  161.8899 C.ar    1  UNL1        0.1316
      3 N         142.6430  144.7505  162.2143 N.ar    1  UNL1       -0.2093
      4 C         142.1561  145.2770  163.5318 C.ar    1  UNL1        0.2014
      5 N         141.5260  144.3460  164.5248 N.ar    1  UNL1       -0.2050
      6 C         141.3826  142.8886  164.2004 C.ar    1  UNL1        0.1653
      7 C         141.8694  142.3621  162.8829 C.ar    1  UNL1        0.0860
      8 C         141.5952  140.8879  162.8429 C.ar    1  UNL1        0.1065
      9 N         140.9388  140.5033  164.1357 N.ar    1  UNL1       -0.1679
     10 N         140.8075  141.7397  164.9747 N.ar    1  UNL1       -0.2340
     11 H         143.4000  143.3775  159.9206 H       1  UNL1        0.1437
     12 H         142.8923  141.8099  160.3595 H       1  UNL1        0.1437
     13 C         141.9202  139.9610  161.7091 C.ar    1  UNL1        0.0196
     14 C         143.2077  139.1915  161.7150 C.ar    1  UNL1        0.0031
     15 C         143.5327  138.2648  160.5813 C.ar    1  UNL1        0.0193
     16 C         142.5701  138.1075  159.4417 C.ar    1  UNL1        0.0844
     17 N         142.8951  137.1806  158.3079 N.ar    1  UNL1       -0.2117
     18 C         141.9325  137.0234  157.1683 C.ar    1  UNL1        0.2247
     19 C         140.6450  137.7929  157.1624 C.ar    1  UNL1        0.0577
     20 C         140.3200  138.7197  158.2962 C.ar    1  UNL1        0.0063
     21 C         141.2826  138.8770  159.4358 C.ar    1  UNL1        0.0180
     22 C         140.9576  139.8038  160.5695 C.ar    1  UNL1        0.0031
     23 O         142.2575  136.0966  156.0345 O.3     1  UNL1       -0.4640
     24 C         142.6344  134.6719  156.3148 C.3     1  UNL1        0.1678
     25 C         142.5894  133.2192  155.9438 C.3     1  UNL1        0.0473
     26 C         143.3320  133.6572  157.1713 C.3     1  UNL1        0.0473
     27 C         140.2064  141.8143  166.3470 C.3     1  UNL1        0.1292
     28 C         141.0484  142.2423  167.5123 C.3     1  UNL1        0.0295
     29 C         140.4282  143.0034  168.6463 C.3     1  UNL1        0.0341
     30 C         141.2702  143.4313  169.8116 C.3     1  UNL1        0.1422
     31 O         142.7324  143.0982  169.8428 O.3     1  UNL1       -0.3538
     32 C         143.3526  142.3370  168.7088 C.3     1  UNL1        0.1422
     33 C         142.5107  141.9091  167.5435 C.3     1  UNL1        0.0341
@<TRIPOS>BOND
     1     1     2    1
     2     2     3   ar
     3     3     4   ar
     4     4     5   ar
     5     5     6   ar
     6     6     7   ar
     7     7     8   ar
     8     8    13    1
     9    13    14   ar
    10    14    15   ar
    11    15    16   ar
    12    16    17   ar
    13    17    18   ar
    14    18    23    1
    15    23    24    1
    16    24    25    1
    17    25    26    1
    18    18    19   ar
    19    19    20   ar
    20    20    21   ar
    21    21    22   ar
    22     8     9   ar
    23     9    10   ar
    24    10    27    1
    25    27    28    1
    26    28    29    1
    27    29    30    1
    28    30    31    1
    29    31    32    1
    30    32    33    1
    31     7     2   ar
    32    22    13   ar
    33    33    28    1
    34    10     6   ar
    35    21    16   ar
    36    26    24    1
    37     1    11    1
    38     1    12    1
