@<TRIPOS>MOLECULE
*****
 29 31 0 0 0
SMALL
GASTEIGER

@<TRIPOS>ATOM
      1 C         140.6777  141.6882  167.6739 C.ar    1  UNL1        0.0519
      2 C         140.5951  142.0044  169.1379 C.ar    1  UNL1        0.0853
      3 C         139.6695  141.2233  170.0228 C.ar    1  UNL1        0.1045
      4 N         138.8264  140.1261  169.4438 N.ar    1  UNL1       -0.2436
      5 C         138.9090  139.8098  167.9798 C.ar    1  UNL1        0.0825
      6 C         138.0659  138.7126  167.4009 C.ar    1  UNL1        0.0191
      7 C         138.1485  138.3964  165.9369 C.ar    1  UNL1        0.0016
      8 C         139.0742  139.1774  165.0520 C.ar    1  UNL1        0.0031
      9 C         139.9172  140.2747  165.6309 C.ar    1  UNL1        0.0028
     10 C         139.8346  140.5909  167.0949 C.ar    1  UNL1        0.0309
     11 C         139.1567  138.8612  163.5880 C.ar    1  UNL1        0.0384
     12 C         138.1160  139.3906  162.6465 C.ar    1  UNL1        0.1022
     13 N         138.1985  139.0743  161.1824 N.ar    1  UNL1       -0.2224
     14 C         139.3219  138.2287  160.6600 C.ar    1  UNL1        0.1989
     15 N         140.3627  137.6992  161.6016 N.ar    1  UNL1       -0.2224
     16 C         140.2801  138.0155  163.0656 C.ar    1  UNL1        0.1022
     17 C         141.4382  143.1017  169.7169 C.2     1  UNL1        0.2455
     18 N         140.7883  144.3398  170.2598 N.am    1  UNL1       -0.3252
     19 O         142.9311  142.9609  169.7531 O.2     1  UNL1       -0.2703
     20 H         139.8084  144.4322  170.2361 H       1  UNL1        0.1453
     21 H         141.3415  145.0600  170.6398 H       1  UNL1        0.1453
     22 N         141.6033  142.4693  166.7890 N.pl3   1  UNL1       -0.3325
     23 H         141.2652  143.2446  166.2852 H       1  UNL1        0.1468
     24 C         143.0442  142.0690  166.6716 C.3     1  UNL1        0.0870
     25 C         143.5371  141.3988  165.4235 C.3     1  UNL1        0.0195
     26 C         143.2051  139.0292  166.4357 C.3     1  UNL1        0.0001
     27 C         143.3453  139.9226  165.2390 C.3     1  UNL1        0.0017
     28 C         144.2220  142.2048  164.3597 C.3     1  UNL1        0.0017
     29 C         145.5752  141.7926  163.8610 C.3     1  UNL1        0.0001
@<TRIPOS>BOND
     1    26    27    1
     2    27    25    1
     3    25    28    1
     4    28    29    1
     5    25    24    1
     6    24    22    1
     7    22     1    1
     8     1     2   ar
     9     2    17    1
    10    17    18   am
    11    17    19    2
    12     2     3   ar
    13     3     4   ar
    14     4     5   ar
    15     5     6   ar
    16     6     7   ar
    17     7     8   ar
    18     8    11    1
    19    11    12   ar
    20    12    13   ar
    21    13    14   ar
    22    14    15   ar
    23    15    16   ar
    24     8     9   ar
    25     9    10   ar
    26    10     1   ar
    27    10     5   ar
    28    16    11   ar
    29    22    23    1
    30    18    20    1
    31    18    21    1
@<TRIPOS>MOLECULE
*****
 29 31 0 0 0
SMALL
GASTEIGER

@<TRIPOS>ATOM
      1 C         140.6360  141.7737  167.8163 C.ar    1  UNL1        0.0519
      2 C         140.5174  142.1131  169.2725 C.ar    1  UNL1        0.0853
      3 C         139.5853  141.3325  170.1511 C.ar    1  UNL1        0.1045
      4 N         138.7718  140.2125  169.5734 N.ar    1  UNL1       -0.2436
      5 C         138.8904  139.8730  168.1170 C.ar    1  UNL1        0.0825
      6 C         138.0769  138.7530  167.5393 C.ar    1  UNL1        0.0191
      7 C         138.1956  138.4136  166.0831 C.ar    1  UNL1        0.0016
      8 C         139.1277  139.1942  165.2045 C.ar    1  UNL1        0.0031
      9 C         139.9411  140.3143  165.7823 C.ar    1  UNL1        0.0028
     10 C         139.8225  140.6536  167.2385 C.ar    1  UNL1        0.0309
     11 C         139.2463  138.8548  163.7482 C.ar    1  UNL1        0.0384
     12 C         140.3820  138.0012  163.2672 C.ar    1  UNL1        0.1022
     13 N         140.5006  137.6618  161.8108 N.ar    1  UNL1       -0.2224
     14 C         139.4834  138.1760  160.8357 C.ar    1  UNL1        0.1989
     15 N         138.3477  139.0296  161.3168 N.ar    1  UNL1       -0.2224
     16 C         138.2291  139.3690  162.7730 C.ar    1  UNL1        0.1022
     17 C         141.3309  143.2332  169.8503 C.2     1  UNL1        0.2455
     18 N         140.6562  144.4941  170.3029 N.am    1  UNL1       -0.3252
     19 O         142.8189  143.0922  169.9755 O.2     1  UNL1       -0.2703
     20 H         139.6795  144.5866  170.2207 H       1  UNL1        0.1453
     21 H         141.1901  145.2292  170.6821 H       1  UNL1        0.1453
     22 N         141.5681  142.5543  166.9378 N.pl3   1  UNL1       -0.3325
     23 H         141.2447  143.3558  166.4662 H       1  UNL1        0.1468
     24 C         142.9931  142.1138  166.7777 C.3     1  UNL1        0.0870
     25 C         143.6690  142.2312  165.4437 C.3     1  UNL1        0.0195
     26 C         143.8518  144.5334  164.2535 C.3     1  UNL1        0.0001
     27 C         144.4592  143.4614  165.1090 C.3     1  UNL1        0.0017
     28 C         143.5546  141.1183  164.4445 C.3     1  UNL1        0.0017
     29 C         143.5169  139.6930  164.9104 C.3     1  UNL1        0.0001
@<TRIPOS>BOND
     1    26    27    1
     2    27    25    1
     3    25    28    1
     4    28    29    1
     5    25    24    1
     6    24    22    1
     7    22     1    1
     8     1     2   ar
     9     2    17    1
    10    17    18   am
    11    17    19    2
    12     2     3   ar
    13     3     4   ar
    14     4     5   ar
    15     5     6   ar
    16     6     7   ar
    17     7     8   ar
    18     8    11    1
    19    11    12   ar
    20    12    13   ar
    21    13    14   ar
    22    14    15   ar
    23    15    16   ar
    24     8     9   ar
    25     9    10   ar
    26    10     1   ar
    27    10     5   ar
    28    16    11   ar
    29    22    23    1
    30    18    20    1
    31    18    21    1
@<TRIPOS>MOLECULE
*****
 29 31 0 0 0
SMALL
GASTEIGER

@<TRIPOS>ATOM
      1 C         141.0855  141.6817  168.0464 C.ar    1  UNL1        0.0519
      2 C         141.4027  141.6339  169.5116 C.ar    1  UNL1        0.0853
      3 C         140.6372  140.7133  170.4151 C.ar    1  UNL1        0.1045
      4 N         139.5544  139.8404  169.8534 N.ar    1  UNL1       -0.2436
      5 C         139.2370  139.8882  168.3881 C.ar    1  UNL1        0.0825
      6 C         138.1542  139.0153  167.8264 C.ar    1  UNL1        0.0191
      7 C         137.8370  139.0631  166.3611 C.ar    1  UNL1        0.0016
      8 C         138.6025  139.9837  165.4576 C.ar    1  UNL1        0.0031
      9 C         139.6853  140.8566  166.0193 C.ar    1  UNL1        0.0028
     10 C         140.0026  140.8088  167.4846 C.ar    1  UNL1        0.0309
     11 C         138.2852  140.0314  163.9923 C.ar    1  UNL1        0.0384
     12 C         137.7149  141.2806  163.3887 C.ar    1  UNL1        0.1022
     13 N         137.3976  141.3283  161.9234 N.ar    1  UNL1       -0.2224
     14 C         137.6506  140.1269  161.0617 C.ar    1  UNL1        0.1989
     15 N         138.2209  138.8777  161.6653 N.ar    1  UNL1       -0.2224
     16 C         138.5382  138.8300  163.1306 C.ar    1  UNL1        0.1022
     17 C         142.4856  142.5068  170.0734 C.2     1  UNL1        0.2455
     18 N         143.9035  142.0183  170.1018 N.am    1  UNL1       -0.3252
     19 O         142.1505  143.8681  170.6068 O.2     1  UNL1       -0.2703
     20 H         144.1235  141.1248  169.7517 H       1  UNL1        0.1453
     21 H         144.6142  142.5912  170.4705 H       1  UNL1        0.1453
     22 N         141.8510  142.6023  167.1428 N.pl3   1  UNL1       -0.3325
     23 H         141.5092  143.5068  166.9576 H       1  UNL1        0.1468
     24 C         143.1374  142.1448  166.5215 C.3     1  UNL1        0.0870
     25 C         143.1133  141.3139  165.2729 C.3     1  UNL1        0.0195
     26 C         142.8609  138.8628  166.0966 C.3     1  UNL1        0.0001
     27 C         143.6051  139.8972  165.3053 C.3     1  UNL1        0.0017
     28 C         142.5975  141.8997  163.9920 C.3     1  UNL1        0.0017
     29 C         141.8797  141.0283  163.0043 C.3     1  UNL1        0.0001
@<TRIPOS>BOND
     1    26    27    1
     2    27    25    1
     3    25    28    1
     4    28    29    1
     5    25    24    1
     6    24    22    1
     7    22     1    1
     8     1     2   ar
     9     2    17    1
    10    17    18   am
    11    17    19    2
    12     2     3   ar
    13     3     4   ar
    14     4     5   ar
    15     5     6   ar
    16     6     7   ar
    17     7     8   ar
    18     8    11    1
    19    11    12   ar
    20    12    13   ar
    21    13    14   ar
    22    14    15   ar
    23    15    16   ar
    24     8     9   ar
    25     9    10   ar
    26    10     1   ar
    27    10     5   ar
    28    16    11   ar
    29    22    23    1
    30    18    20    1
    31    18    21    1
@<TRIPOS>MOLECULE
*****
 29 31 0 0 0
SMALL
GASTEIGER

@<TRIPOS>ATOM
      1 C         139.4234  139.2634  163.7667 C.ar    1  UNL1        0.0519
      2 C         139.7955  138.3769  162.6154 C.ar    1  UNL1        0.0853
      3 C         141.0913  137.6216  162.6385 C.ar    1  UNL1        0.1045
      4 N         142.0150  137.7528  163.8131 N.ar    1  UNL1       -0.2436
      5 C         141.6429  138.6394  164.9645 C.ar    1  UNL1        0.0825
      6 C         142.5666  138.7706  166.1390 C.ar    1  UNL1        0.0191
      7 C         142.1945  139.6571  167.2903 C.ar    1  UNL1        0.0016
      8 C         140.8987  140.4124  167.2671 C.ar    1  UNL1        0.0031
      9 C         139.9750  140.2812  166.0926 C.ar    1  UNL1        0.0028
     10 C         140.3471  139.3946  164.9413 C.ar    1  UNL1        0.0309
     11 C         140.5267  141.2990  168.4185 C.ar    1  UNL1        0.0384
     12 C         140.5471  142.7898  168.2544 C.ar    1  UNL1        0.1022
     13 N         140.1751  143.6763  169.4058 N.ar    1  UNL1       -0.2224
     14 C         139.7826  143.0720  170.7213 C.ar    1  UNL1        0.1989
     15 N         139.7621  141.5811  170.8855 N.ar    1  UNL1       -0.2224
     16 C         140.1341  140.6946  169.7341 C.ar    1  UNL1        0.1022
     17 C         138.8718  138.2456  161.4408 C.2     1  UNL1        0.2455
     18 N         139.4111  138.3618  160.0459 N.am    1  UNL1       -0.3252
     19 O         137.4089  137.9981  161.6611 O.2     1  UNL1       -0.2703
     20 H         140.3713  138.5242  159.9013 H       1  UNL1        0.1453
     21 H         138.8049  138.2756  159.2750 H       1  UNL1        0.1453
     22 N         138.1276  140.0186  163.7435 N.pl3   1  UNL1       -0.3325
     23 H         137.3387  139.6570  164.2084 H       1  UNL1        0.1468
     24 C         138.0339  141.3249  163.0120 C.3     1  UNL1        0.0870
     25 C         138.7119  142.5438  163.5637 C.3     1  UNL1        0.0195
     26 C         141.3062  142.6670  163.6296 C.3     1  UNL1        0.0001
     27 C         140.0055  143.0162  162.9693 C.3     1  UNL1        0.0017
     28 C         138.0964  143.2903  164.7100 C.3     1  UNL1        0.0017
     29 C         138.5532  144.6827  165.0300 C.3     1  UNL1        0.0001
@<TRIPOS>BOND
     1    26    27    1
     2    27    25    1
     3    25    28    1
     4    28    29    1
     5    25    24    1
     6    24    22    1
     7    22     1    1
     8     1     2   ar
     9     2    17    1
    10    17    18   am
    11    17    19    2
    12     2     3   ar
    13     3     4   ar
    14     4     5   ar
    15     5     6   ar
    16     6     7   ar
    17     7     8   ar
    18     8    11    1
    19    11    12   ar
    20    12    13   ar
    21    13    14   ar
    22    14    15   ar
    23    15    16   ar
    24     8     9   ar
    25     9    10   ar
    26    10     1   ar
    27    10     5   ar
    28    16    11   ar
    29    22    23    1
    30    18    20    1
    31    18    21    1
@<TRIPOS>MOLECULE
*****
 29 31 0 0 0
SMALL
GASTEIGER

@<TRIPOS>ATOM
      1 C         139.3246  142.8255  164.1859 C.ar    1  UNL1        0.0519
      2 C         138.5982  142.7446  162.8761 C.ar    1  UNL1        0.0853
      3 C         137.7488  141.5488  162.5621 C.ar    1  UNL1        0.1045
      4 N         137.6258  140.4339  163.5580 N.ar    1  UNL1       -0.2436
      5 C         138.3523  140.5147  164.8679 C.ar    1  UNL1        0.0825
      6 C         138.2293  139.3998  165.8638 C.ar    1  UNL1        0.0191
      7 C         138.9558  139.4807  167.1736 C.ar    1  UNL1        0.0016
      8 C         139.8052  140.6766  167.4875 C.ar    1  UNL1        0.0031
      9 C         139.9281  141.7915  166.4917 C.ar    1  UNL1        0.0028
     10 C         139.2017  141.7106  165.1818 C.ar    1  UNL1        0.0309
     11 C         140.5316  140.7574  168.7975 C.ar    1  UNL1        0.0384
     12 C         139.8253  141.2728  170.0162 C.ar    1  UNL1        0.1022
     13 N         140.5518  141.3537  171.3261 N.ar    1  UNL1       -0.2224
     14 C         141.9846  140.9191  171.4172 C.ar    1  UNL1        0.1989
     15 N         142.6909  140.4037  170.1983 N.ar    1  UNL1       -0.2224
     16 C         141.9644  140.3229  168.8885 C.ar    1  UNL1        0.1022
     17 C         138.7211  143.8595  161.8801 C.2     1  UNL1        0.2455
     18 N         139.1144  143.5601  160.4639 N.am    1  UNL1       -0.3252
     19 O         138.4508  145.2738  162.3004 O.2     1  UNL1       -0.2703
     20 H         139.2918  142.6318  160.1880 H       1  UNL1        0.1453
     21 H         139.1951  144.2918  159.8102 H       1  UNL1        0.1453
     22 N         140.1740  144.0213  164.4998 N.pl3   1  UNL1       -0.3325
     23 H         139.8093  144.7543  165.0466 H       1  UNL1        0.1468
     24 C         141.5792  144.1003  163.9806 C.3     1  UNL1        0.0870
     25 C         142.4779  142.9023  164.0638 C.3     1  UNL1        0.0195
     26 C         143.6358  140.9093  162.8649 C.3     1  UNL1        0.0001
     27 C         142.5365  141.9281  162.9247 C.3     1  UNL1        0.0017
     28 C         143.3181  142.6784  165.2861 C.3     1  UNL1        0.0017
     29 C         144.5395  143.5170  165.5206 C.3     1  UNL1        0.0001
@<TRIPOS>BOND
     1    26    27    1
     2    27    25    1
     3    25    28    1
     4    28    29    1
     5    25    24    1
     6    24    22    1
     7    22     1    1
     8     1     2   ar
     9     2    17    1
    10    17    18   am
    11    17    19    2
    12     2     3   ar
    13     3     4   ar
    14     4     5   ar
    15     5     6   ar
    16     6     7   ar
    17     7     8   ar
    18     8    11    1
    19    11    12   ar
    20    12    13   ar
    21    13    14   ar
    22    14    15   ar
    23    15    16   ar
    24     8     9   ar
    25     9    10   ar
    26    10     1   ar
    27    10     5   ar
    28    16    11   ar
    29    22    23    1
    30    18    20    1
    31    18    21    1
@<TRIPOS>MOLECULE
*****
 29 31 0 0 0
SMALL
GASTEIGER

@<TRIPOS>ATOM
      1 C         140.4717  141.9105  167.5187 C.ar    1  UNL1        0.0519
      2 C         140.3881  142.0621  169.0087 C.ar    1  UNL1        0.0853
      3 C         139.5871  141.0858  169.8181 C.ar    1  UNL1        0.1045
      4 N         138.8696  139.9579  169.1376 N.ar    1  UNL1       -0.2436
      5 C         138.9532  139.8063  167.6476 C.ar    1  UNL1        0.0825
      6 C         138.2357  138.6784  166.9671 C.ar    1  UNL1        0.0191
      7 C         138.3193  138.5268  165.4772 C.ar    1  UNL1        0.0016
      8 C         139.1204  139.5031  164.6677 C.ar    1  UNL1        0.0031
      9 C         139.8378  140.6310  165.3482 C.ar    1  UNL1        0.0028
     10 C         139.7542  140.7826  166.8381 C.ar    1  UNL1        0.0309
     11 C         139.2039  139.3514  163.1777 C.ar    1  UNL1        0.0384
     12 C         138.9725  138.0107  162.5461 C.ar    1  UNL1        0.1022
     13 N         139.0560  137.8591  161.0561 N.ar    1  UNL1       -0.2224
     14 C         139.3710  139.0482  160.1977 C.ar    1  UNL1        0.1989
     15 N         139.6025  140.3889  160.8294 N.ar    1  UNL1       -0.2224
     16 C         139.5189  140.5405  162.3193 C.ar    1  UNL1        0.1022
     17 C         141.1055  143.1900  169.6892 C.2     1  UNL1        0.2455
     18 N         140.3263  144.3326  170.2701 N.am    1  UNL1       -0.3252
     19 O         142.6021  143.1754  169.7889 O.2     1  UNL1       -0.2703
     20 H         139.3441  144.3422  170.2046 H       1  UNL1        0.1453
     21 H         140.7972  145.0729  170.7167 H       1  UNL1        0.1453
     22 N         141.2727  142.8868  166.7092 N.pl3   1  UNL1       -0.3325
     23 H         141.9669  143.4334  167.1434 H       1  UNL1        0.1468
     24 C         141.0159  143.0302  165.2383 C.3     1  UNL1        0.0870
     25 C         140.3568  144.2695  164.7093 C.3     1  UNL1        0.0195
     26 C         137.7816  143.9529  164.5757 C.3     1  UNL1        0.0001
     27 C         138.9771  144.6390  165.1673 C.3     1  UNL1        0.0017
     28 C         141.0776  145.1393  163.7223 C.3     1  UNL1        0.0017
     29 C         140.4058  145.5352  162.4410 C.3     1  UNL1        0.0001
@<TRIPOS>BOND
     1    26    27    1
     2    27    25    1
     3    25    28    1
     4    28    29    1
     5    25    24    1
     6    24    22    1
     7    22     1    1
     8     1     2   ar
     9     2    17    1
    10    17    18   am
    11    17    19    2
    12     2     3   ar
    13     3     4   ar
    14     4     5   ar
    15     5     6   ar
    16     6     7   ar
    17     7     8   ar
    18     8    11    1
    19    11    12   ar
    20    12    13   ar
    21    13    14   ar
    22    14    15   ar
    23    15    16   ar
    24     8     9   ar
    25     9    10   ar
    26    10     1   ar
    27    10     5   ar
    28    16    11   ar
    29    22    23    1
    30    18    20    1
    31    18    21    1
@<TRIPOS>MOLECULE
*****
 29 31 0 0 0
SMALL
GASTEIGER

@<TRIPOS>ATOM
      1 C         139.9351  141.1893  166.8574 C.ar    1  UNL1        0.0519
      2 C         139.3797  140.1967  167.8353 C.ar    1  UNL1        0.0853
      3 C         138.3967  139.1609  167.3761 C.ar    1  UNL1        0.1045
      4 N         137.9690  139.1177  165.9391 N.ar    1  UNL1       -0.2436
      5 C         138.5244  140.1103  164.9611 C.ar    1  UNL1        0.0825
      6 C         138.0967  140.0671  163.5240 C.ar    1  UNL1        0.0191
      7 C         138.6521  141.0597  162.5461 C.ar    1  UNL1        0.0016
      8 C         139.6351  142.0954  163.0053 C.ar    1  UNL1        0.0031
      9 C         140.0628  142.1386  164.4423 C.ar    1  UNL1        0.0028
     10 C         139.5074  141.1461  165.4202 C.ar    1  UNL1        0.0309
     11 C         140.1905  143.0880  162.0273 C.ar    1  UNL1        0.0384
     12 C         139.3196  143.6308  160.9333 C.ar    1  UNL1        0.1022
     13 N         139.8750  144.6234  159.9553 N.ar    1  UNL1       -0.2224
     14 C         141.3013  145.0731  160.0713 C.ar    1  UNL1        0.1989
     15 N         142.1722  144.5303  161.1654 N.ar    1  UNL1       -0.2224
     16 C         141.6168  143.5377  162.1433 C.ar    1  UNL1        0.1022
     17 C         139.8074  140.2399  169.2724 C.2     1  UNL1        0.2455
     18 N         138.8771  140.7842  170.3157 N.am    1  UNL1       -0.3252
     19 O         141.1652  139.7388  169.6663 O.2     1  UNL1       -0.2703
     20 H         137.9859  141.1132  170.0572 H       1  UNL1        0.1453
     21 H         139.1578  140.8126  171.2589 H       1  UNL1        0.1453
     22 N         140.9181  142.2250  167.3165 N.pl3   1  UNL1       -0.3325
     23 H         140.6025  143.1173  167.5876 H       1  UNL1        0.1468
     24 C         142.3821  141.9013  167.3626 C.3     1  UNL1        0.0870
     25 C         143.1383  141.6648  166.0890 C.3     1  UNL1        0.0195
     26 C         142.9327  139.0986  166.4389 C.3     1  UNL1        0.0001
     27 C         143.3666  140.2648  165.6012 C.3     1  UNL1        0.0017
     28 C         143.6664  142.8283  165.3031 C.3     1  UNL1        0.0017
     29 C         144.7306  142.6132  164.2682 C.3     1  UNL1        0.0001
@<TRIPOS>BOND
     1    26    27    1
     2    27    25    1
     3    25    28    1
     4    28    29    1
     5    25    24    1
     6    24    22    1
     7    22     1    1
     8     1     2   ar
     9     2    17    1
    10    17    18   am
    11    17    19    2
    12     2     3   ar
    13     3     4   ar
    14     4     5   ar
    15     5     6   ar
    16     6     7   ar
    17     7     8   ar
    18     8    11    1
    19    11    12   ar
    20    12    13   ar
    21    13    14   ar
    22    14    15   ar
    23    15    16   ar
    24     8     9   ar
    25     9    10   ar
    26    10     1   ar
    27    10     5   ar
    28    16    11   ar
    29    22    23    1
    30    18    20    1
    31    18    21    1
@<TRIPOS>MOLECULE
*****
 29 31 0 0 0
SMALL
GASTEIGER

@<TRIPOS>ATOM
      1 C         141.4118  141.7168  168.0176 C.ar    1  UNL1        0.0519
      2 C         141.0858  141.6813  169.4813 C.ar    1  UNL1        0.0853
      3 C         141.5157  140.5124  170.3173 C.ar    1  UNL1        0.1045
      4 N         142.2716  139.3791  169.6896 N.ar    1  UNL1       -0.2436
      5 C         142.5977  139.4146  168.2258 C.ar    1  UNL1        0.0825
      6 C         143.3536  138.2812  167.5982 C.ar    1  UNL1        0.0191
      7 C         143.6796  138.3167  166.1345 C.ar    1  UNL1        0.0016
      8 C         143.2497  139.4856  165.2985 C.ar    1  UNL1        0.0031
      9 C         142.4938  140.6189  165.9261 C.ar    1  UNL1        0.0028
     10 C         142.1678  140.5834  167.3898 C.ar    1  UNL1        0.0309
     11 C         143.5758  139.5211  163.8347 C.ar    1  UNL1        0.0384
     12 C         143.0258  138.4688  162.9181 C.ar    1  UNL1        0.1022
     13 N         143.3519  138.5042  161.4544 N.ar    1  UNL1       -0.2224
     14 C         144.2279  139.5920  160.9073 C.ar    1  UNL1        0.1989
     15 N         144.7779  140.6444  161.8240 N.ar    1  UNL1       -0.2224
     16 C         144.4518  140.6089  163.2876 C.ar    1  UNL1        0.1022
     17 C         140.3298  142.8147  170.1090 C.2     1  UNL1        0.2455
     18 N         139.7441  142.6568  171.4809 N.am    1  UNL1       -0.3252
     19 O         140.1596  144.1059  169.3649 O.2     1  UNL1       -0.2703
     20 H         139.8559  141.8093  171.9693 H       1  UNL1        0.1453
     21 H         139.2480  143.4007  171.8929 H       1  UNL1        0.1453
     22 N         140.9819  142.8857  167.1816 N.pl3   1  UNL1       -0.3325
     23 H         141.4288  143.7567  167.2862 H       1  UNL1        0.1468
     24 C         139.8710  142.7276  166.1861 C.3     1  UNL1        0.0870
     25 C         139.8014  143.6304  164.9902 C.3     1  UNL1        0.0195
     26 C         141.5288  145.1161  163.7416 C.3     1  UNL1        0.0001
     27 C         140.9851  143.7591  164.0778 C.3     1  UNL1        0.0017
     28 C         138.5482  144.4044  164.7067 C.3     1  UNL1        0.0017
     29 C         137.7723  144.1414  163.4502 C.3     1  UNL1        0.0001
@<TRIPOS>BOND
     1    26    27    1
     2    27    25    1
     3    25    28    1
     4    28    29    1
     5    25    24    1
     6    24    22    1
     7    22     1    1
     8     1     2   ar
     9     2    17    1
    10    17    18   am
    11    17    19    2
    12     2     3   ar
    13     3     4   ar
    14     4     5   ar
    15     5     6   ar
    16     6     7   ar
    17     7     8   ar
    18     8    11    1
    19    11    12   ar
    20    12    13   ar
    21    13    14   ar
    22    14    15   ar
    23    15    16   ar
    24     8     9   ar
    25     9    10   ar
    26    10     1   ar
    27    10     5   ar
    28    16    11   ar
    29    22    23    1
    30    18    20    1
    31    18    21    1
@<TRIPOS>MOLECULE
*****
 29 31 0 0 0
SMALL
GASTEIGER

@<TRIPOS>ATOM
      1 C         141.0533  141.5427  168.1918 C.ar    1  UNL1        0.0519
      2 C         141.7675  141.3964  169.5027 C.ar    1  UNL1        0.0853
      3 C         143.1854  141.8659  169.6409 C.ar    1  UNL1        0.1045
      4 N         143.8891  142.4819  168.4681 N.ar    1  UNL1       -0.2436
      5 C         143.1749  142.6283  167.1571 C.ar    1  UNL1        0.0825
      6 C         143.8786  143.2442  165.9844 C.ar    1  UNL1        0.0191
      7 C         143.1644  143.3906  164.6735 C.ar    1  UNL1        0.0016
      8 C         141.7466  142.9210  164.5354 C.ar    1  UNL1        0.0031
      9 C         141.0428  142.3050  165.7081 C.ar    1  UNL1        0.0028
     10 C         141.7570  142.1587  167.0190 C.ar    1  UNL1        0.0309
     11 C         141.0324  143.0674  163.2244 C.ar    1  UNL1        0.0384
     12 C         139.7338  143.8151  163.1571 C.ar    1  UNL1        0.1022
     13 N         139.0196  143.9615  161.8462 N.ar    1  UNL1       -0.2224
     14 C         139.6041  143.3601  160.6025 C.ar    1  UNL1        0.1989
     15 N         140.9027  142.6124  160.6698 N.ar    1  UNL1       -0.2224
     16 C         141.6168  142.4660  161.9807 C.ar    1  UNL1        0.1022
     17 C         141.0638  140.7804  170.6755 C.2     1  UNL1        0.2455
     18 N         140.8878  139.2925  170.7477 N.am    1  UNL1       -0.3252
     19 O         140.5362  141.6523  171.7761 O.2     1  UNL1       -0.2703
     20 H         141.2341  138.7202  170.0253 H       1  UNL1        0.1453
     21 H         140.4260  138.8882  171.5174 H       1  UNL1        0.1453
     22 N         139.6354  141.0731  168.0537 N.pl3   1  UNL1       -0.3325
     23 H         138.8927  141.6724  168.2953 H       1  UNL1        0.1468
     24 C         139.3493  139.6904  167.5474 C.3     1  UNL1        0.0870
     25 C         139.2330  139.4407  166.0729 C.3     1  UNL1        0.0195
     26 C         138.3304  140.3609  163.8171 C.3     1  UNL1        0.0001
     27 C         138.1443  140.1050  165.2834 C.3     1  UNL1        0.0017
     28 C         140.2054  138.5267  165.3880 C.3     1  UNL1        0.0017
     29 C         141.6803  138.7218  165.5793 C.3     1  UNL1        0.0001
@<TRIPOS>BOND
     1    26    27    1
     2    27    25    1
     3    25    28    1
     4    28    29    1
     5    25    24    1
     6    24    22    1
     7    22     1    1
     8     1     2   ar
     9     2    17    1
    10    17    18   am
    11    17    19    2
    12     2     3   ar
    13     3     4   ar
    14     4     5   ar
    15     5     6   ar
    16     6     7   ar
    17     7     8   ar
    18     8    11    1
    19    11    12   ar
    20    12    13   ar
    21    13    14   ar
    22    14    15   ar
    23    15    16   ar
    24     8     9   ar
    25     9    10   ar
    26    10     1   ar
    27    10     5   ar
    28    16    11   ar
    29    22    23    1
    30    18    20    1
    31    18    21    1
