@<TRIPOS>MOLECULE
*****
 36 40 0 0 0
SMALL
GASTEIGER

@<TRIPOS>ATOM
      1 C         143.6154  137.5715  156.0874 C.ar    1  UNL1        0.0829
      2 C         144.5483  138.1245  155.0511 C.ar    1  UNL1        0.0193
      3 C         145.1287  139.4972  155.2206 C.ar    1  UNL1        0.0074
      4 C         144.7762  140.3169  156.4264 C.ar    1  UNL1        0.0676
      5 C         145.3567  141.6897  156.5959 C.ar    1  UNL1        0.1376
      6 N         145.0043  142.5093  157.8017 N.ar    1  UNL1       -0.1986
      7 C         144.0714  141.9562  158.8380 C.ar    1  UNL1        0.2227
      8 N         143.4910  140.5835  158.6685 N.ar    1  UNL1       -0.1944
      9 C         143.8434  139.7639  157.4627 C.ar    1  UNL1        0.1678
     10 N         143.2630  138.3912  157.2932 N.ar    1  UNL1       -0.2264
     11 N         146.2895  142.2427  155.5596 N.pl3   1  UNL1       -0.2897
     12 C         147.7526  141.9170  155.6172 C.3     1  UNL1        0.1242
     13 C         148.6855  142.4701  154.5809 C.3     1  UNL1        0.1636
     14 O         148.1552  143.3488  153.4870 O.3     1  UNL1       -0.3502
     15 C         146.6921  143.6745  153.4294 C.3     1  UNL1        0.1618
     16 C         145.7593  143.1215  154.4656 C.3     1  UNL1        0.1038
     17 C         144.2962  143.4472  154.4080 C.3     1  UNL1        0.0241
     18 N         143.7189  142.7759  160.0438 N.pl3   1  UNL1       -0.2747
     19 C         144.6567  142.8312  161.2133 C.3     1  UNL1        0.1256
     20 C         144.3042  143.6509  162.4191 C.3     1  UNL1        0.1637
     21 O         143.0140  144.4152  162.4554 O.3     1  UNL1       -0.3502
     22 C         142.0764  144.3599  161.2859 C.3     1  UNL1        0.1619
     23 C         142.4288  143.5402  160.0801 C.3     1  UNL1        0.1052
     24 C         141.4912  143.4849  158.9107 C.3     1  UNL1        0.0242
     25 C         141.8741  133.4533  155.5789 C.ar    1  UNL1        0.1369
     26 C         141.2899  134.6126  154.8275 C.ar    1  UNL1        0.0367
     27 C         141.8703  135.9854  154.9970 C.ar    1  UNL1        0.0046
     28 C         143.0350  136.1987  155.9179 C.ar    1  UNL1        0.0177
     29 C         143.6192  135.0394  156.6693 C.ar    1  UNL1        0.0026
     30 C         143.0388  133.6667  156.4999 C.ar    1  UNL1        0.0383
     31 C         143.6231  132.5074  157.2513 C.3     1  UNL1        0.1357
     32 C         145.0728  132.5171  157.6363 C.3     1  UNL1        0.0368
     33 O         142.7575  131.3383  157.6177 O.3     1  UNL1       -0.3799
     34 H         141.8550  131.4910  157.2967 H       1  UNL1        0.2108
     35 C         141.4025  131.3781  154.0886 C.3     1  UNL1        0.2525
     36 O         141.2937  132.0805  155.4095 O.3     1  UNL1       -0.4717
@<TRIPOS>BOND
     1    35    36    1
     2    36    25    1
     3    25    26   ar
     4    26    27   ar
     5    27    28   ar
     6    28     1    1
     7     1     2   ar
     8     2     3   ar
     9     3     4   ar
    10     4     5   ar
    11     5    11    1
    12    11    12    1
    13    12    13    1
    14    13    14    1
    15    14    15    1
    16    15    16    1
    17    16    17    1
    18     5     6   ar
    19     6     7   ar
    20     7    18    1
    21    18    19    1
    22    19    20    1
    23    20    21    1
    24    21    22    1
    25    22    23    1
    26    23    24    1
    27     7     8   ar
    28     8     9   ar
    29     9    10   ar
    30    28    29   ar
    31    29    30   ar
    32    30    31    1
    33    31    32    1
    34    31    33    1
    35    30    25   ar
    36    10     1   ar
    37     9     4   ar
    38    16    11    1
    39    23    18    1
    40    33    34    1
@<TRIPOS>MOLECULE
*****
 36 40 0 0 0
SMALL
GASTEIGER

@<TRIPOS>ATOM
      1 C         142.2464  136.5090  156.6891 C.ar    1  UNL1        0.0829
      2 C         141.2513  137.4630  156.0980 C.ar    1  UNL1        0.0193
      3 C         140.9974  138.7860  156.7577 C.ar    1  UNL1        0.0074
      4 C         141.7387  139.1550  158.0084 C.ar    1  UNL1        0.0676
      5 C         141.4849  140.4781  158.6680 C.ar    1  UNL1        0.1376
      6 N         142.2262  140.8470  159.9188 N.ar    1  UNL1       -0.1986
      7 C         143.2214  139.8929  160.5099 C.ar    1  UNL1        0.2227
      8 N         143.4752  138.5699  159.8502 N.ar    1  UNL1       -0.1944
      9 C         142.7339  138.2009  158.5995 C.ar    1  UNL1        0.1678
     10 N         142.9877  136.8779  157.9399 N.ar    1  UNL1       -0.2264
     11 N         140.4898  141.4321  158.0769 N.pl3   1  UNL1       -0.2897
     12 C         140.9382  142.4651  157.0860 C.3     1  UNL1        0.1242
     13 C         139.9430  143.4192  156.4949 C.3     1  UNL1        0.1636
     14 O         138.4994  143.3403  156.8947 O.3     1  UNL1       -0.3502
     15 C         138.0510  142.3073  157.8856 C.3     1  UNL1        0.1618
     16 C         139.0461  141.3533  158.4767 C.3     1  UNL1        0.1038
     17 C         138.5977  140.3203  159.4676 C.3     1  UNL1        0.0241
     18 N         143.9627  140.2618  161.7606 N.pl3   1  UNL1       -0.2747
     19 C         144.8563  141.4666  161.7750 C.3     1  UNL1        0.1256
     20 C         145.5976  141.8355  163.0258 C.3     1  UNL1        0.1637
     21 O         145.4453  140.9997  164.2621 O.3     1  UNL1       -0.3502
     22 C         144.5517  139.7951  164.2476 C.3     1  UNL1        0.1619
     23 C         143.8104  139.4261  162.9969 C.3     1  UNL1        0.1052
     24 C         142.9168  138.2215  162.9824 C.3     1  UNL1        0.0242
     25 C         143.0080  132.5397  154.7103 C.ar    1  UNL1        0.1369
     26 C         141.9749  133.4714  154.1493 C.ar    1  UNL1        0.0367
     27 C         141.7211  134.7945  154.8090 C.ar    1  UNL1        0.0046
     28 C         142.5002  135.1859  156.0295 C.ar    1  UNL1        0.0177
     29 C         143.5333  134.2541  156.5904 C.ar    1  UNL1        0.0026
     30 C         143.7872  132.9311  155.9309 C.ar    1  UNL1        0.0383
     31 C         144.8203  131.9994  156.4918 C.3     1  UNL1        0.1357
     32 C         145.2750  132.1518  157.9130 C.3     1  UNL1        0.0368
     33 O         145.3986  130.9152  155.6315 O.3     1  UNL1       -0.3799
     34 H         144.9995  130.9558  154.7483 H       1  UNL1        0.2108
     35 C         143.4272  131.1404  152.5619 C.3     1  UNL1        0.2525
     36 O         143.2619  131.2167  154.0507 O.3     1  UNL1       -0.4717
@<TRIPOS>BOND
     1    35    36    1
     2    36    25    1
     3    25    26   ar
     4    26    27   ar
     5    27    28   ar
     6    28     1    1
     7     1     2   ar
     8     2     3   ar
     9     3     4   ar
    10     4     5   ar
    11     5    11    1
    12    11    12    1
    13    12    13    1
    14    13    14    1
    15    14    15    1
    16    15    16    1
    17    16    17    1
    18     5     6   ar
    19     6     7   ar
    20     7    18    1
    21    18    19    1
    22    19    20    1
    23    20    21    1
    24    21    22    1
    25    22    23    1
    26    23    24    1
    27     7     8   ar
    28     8     9   ar
    29     9    10   ar
    30    28    29   ar
    31    29    30   ar
    32    30    31    1
    33    31    32    1
    34    31    33    1
    35    30    25   ar
    36    10     1   ar
    37     9     4   ar
    38    16    11    1
    39    23    18    1
    40    33    34    1
@<TRIPOS>MOLECULE
*****
 36 40 0 0 0
SMALL
GASTEIGER

@<TRIPOS>ATOM
      1 C         139.8888  138.9809  160.8813 C.ar    1  UNL1        0.0829
      2 C         141.2641  138.5481  160.4675 C.ar    1  UNL1        0.0193
      3 C         141.6422  138.5382  159.0160 C.ar    1  UNL1        0.0074
      4 C         140.6450  138.9610  157.9783 C.ar    1  UNL1        0.0676
      5 C         141.0232  138.9511  156.5267 C.ar    1  UNL1        0.1376
      6 N         140.0261  139.3739  155.4890 N.ar    1  UNL1       -0.1986
      7 C         138.6507  139.8067  155.9028 C.ar    1  UNL1        0.2227
      8 N         138.2726  139.8167  157.3543 N.ar    1  UNL1       -0.1944
      9 C         139.2697  139.3938  158.3921 C.ar    1  UNL1        0.1678
     10 N         138.8916  139.4038  159.8436 N.ar    1  UNL1       -0.2264
     11 N         142.3985  138.5183  156.1130 N.pl3   1  UNL1       -0.2897
     12 C         143.4747  139.5415  155.9010 C.3     1  UNL1        0.1242
     13 C         144.8500  139.1086  155.4872 C.3     1  UNL1        0.1636
     14 O         145.1491  137.6527  155.2854 O.3     1  UNL1       -0.3502
     15 C         144.0729  136.6295  155.4974 C.3     1  UNL1        0.1618
     16 C         142.6977  137.0623  155.9112 C.3     1  UNL1        0.1038
     17 C         141.6215  136.0391  156.1232 C.3     1  UNL1        0.0241
     18 N         137.6536  140.2296  154.8651 N.pl3   1  UNL1       -0.2747
     19 C         137.3902  141.6872  154.6280 C.3     1  UNL1        0.1256
     20 C         136.3931  142.1100  153.5903 C.3     1  UNL1        0.1637
     21 O         135.6592  141.0752  152.7897 O.3     1  UNL1       -0.3502
     22 C         135.9226  139.6177  153.0268 C.3     1  UNL1        0.1619
     23 C         136.9197  139.1949  154.0646 C.3     1  UNL1        0.1052
     24 C         137.1831  137.7374  154.3017 C.3     1  UNL1        0.0242
     25 C         138.7542  139.0108  165.2359 C.ar    1  UNL1        0.1369
     26 C         138.8299  137.7119  164.4895 C.ar    1  UNL1        0.0367
     27 C         139.2080  137.7020  163.0379 C.ar    1  UNL1        0.0046
     28 C         139.5106  138.9909  162.3328 C.ar    1  UNL1        0.0177
     29 C         139.4350  140.2898  163.0793 C.ar    1  UNL1        0.0026
     30 C         139.0568  140.2998  164.5307 C.ar    1  UNL1        0.0383
     31 C         138.9812  141.5987  165.2772 C.3     1  UNL1        0.1357
     32 C         138.1878  142.7412  164.7158 C.3     1  UNL1        0.0368
     33 O         139.6991  141.7550  166.5850 O.3     1  UNL1       -0.3799
     34 H         140.1597  140.9293  166.8017 H       1  UNL1        0.2108
     35 C         137.3379  138.0664  167.1985 C.3     1  UNL1        0.2525
     36 O         138.3761  139.0208  166.6874 O.3     1  UNL1       -0.4717
@<TRIPOS>BOND
     1    35    36    1
     2    36    25    1
     3    25    26   ar
     4    26    27   ar
     5    27    28   ar
     6    28     1    1
     7     1     2   ar
     8     2     3   ar
     9     3     4   ar
    10     4     5   ar
    11     5    11    1
    12    11    12    1
    13    12    13    1
    14    13    14    1
    15    14    15    1
    16    15    16    1
    17    16    17    1
    18     5     6   ar
    19     6     7   ar
    20     7    18    1
    21    18    19    1
    22    19    20    1
    23    20    21    1
    24    21    22    1
    25    22    23    1
    26    23    24    1
    27     7     8   ar
    28     8     9   ar
    29     9    10   ar
    30    28    29   ar
    31    29    30   ar
    32    30    31    1
    33    31    32    1
    34    31    33    1
    35    30    25   ar
    36    10     1   ar
    37     9     4   ar
    38    16    11    1
    39    23    18    1
    40    33    34    1
@<TRIPOS>MOLECULE
*****
 36 40 0 0 0
SMALL
GASTEIGER

@<TRIPOS>ATOM
      1 C         141.3215  143.9146  159.9412 C.ar    1  UNL1        0.0829
      2 C         140.6169  142.7083  159.3948 C.ar    1  UNL1        0.0193
      3 C         139.8178  142.8155  158.1300 C.ar    1  UNL1        0.0074
      4 C         139.7232  144.1288  157.4115 C.ar    1  UNL1        0.0676
      5 C         138.9241  144.2359  156.1466 C.ar    1  UNL1        0.1376
      6 N         138.8295  145.5493  155.4282 N.ar    1  UNL1       -0.1986
      7 C         139.5341  146.7555  155.9746 C.ar    1  UNL1        0.2227
      8 N         140.3332  146.6484  157.2395 N.ar    1  UNL1       -0.1944
      9 C         140.4278  145.3350  157.9579 C.ar    1  UNL1        0.1678
     10 N         141.2269  145.2279  159.2228 N.ar    1  UNL1       -0.2264
     11 N         138.2195  143.0297  155.6002 N.pl3   1  UNL1       -0.2897
     12 C         136.8308  142.6995  156.0610 C.3     1  UNL1        0.1242
     13 C         136.1262  141.4932  155.5145 C.3     1  UNL1        0.1636
     14 O         136.8104  140.6172  154.5073 O.3     1  UNL1       -0.3502
     15 C         138.1992  140.9474  154.0466 C.3     1  UNL1        0.1618
     16 C         138.9037  142.1536  154.5930 C.3     1  UNL1        0.1038
     17 C         140.2925  142.4838  154.1322 C.3     1  UNL1        0.0241
     18 N         139.4395  148.0689  155.2562 N.pl3   1  UNL1       -0.2747
     19 C         138.6873  149.2097  155.8749 C.3     1  UNL1        0.1256
     20 C         138.5927  150.5231  155.1564 C.3     1  UNL1        0.1637
     21 O         139.2504  150.6956  153.8193 O.3     1  UNL1       -0.3502
     22 C         140.0026  149.5548  153.2007 C.3     1  UNL1        0.1619
     23 C         140.0971  148.2414  153.9192 C.3     1  UNL1        0.1052
     24 C         140.8493  147.1006  153.3006 C.3     1  UNL1        0.0242
     25 C         143.7190  143.5932  163.7359 C.ar    1  UNL1        0.1369
     26 C         142.7111  144.6927  163.5763 C.ar    1  UNL1        0.0367
     27 C         141.9119  144.7998  162.3114 C.ar    1  UNL1        0.0046
     28 C         142.1207  143.8075  161.2061 C.ar    1  UNL1        0.0177
     29 C         143.1285  142.7080  161.3657 C.ar    1  UNL1        0.0026
     30 C         143.9277  142.6009  162.6305 C.ar    1  UNL1        0.0383
     31 C         144.9355  141.5015  162.7900 C.3     1  UNL1        0.1357
     32 C         144.5326  140.0753  162.5588 C.3     1  UNL1        0.0368
     33 O         146.3464  141.8283  163.1809 O.3     1  UNL1       -0.3799
     34 H         146.4376  142.7878  163.2903 H       1  UNL1        0.2108
     35 C         143.9128  142.8543  166.2190 C.3     1  UNL1        0.2525
     36 O         144.5181  143.4861  165.0007 O.3     1  UNL1       -0.4717
@<TRIPOS>BOND
     1    35    36    1
     2    36    25    1
     3    25    26   ar
     4    26    27   ar
     5    27    28   ar
     6    28     1    1
     7     1     2   ar
     8     2     3   ar
     9     3     4   ar
    10     4     5   ar
    11     5    11    1
    12    11    12    1
    13    12    13    1
    14    13    14    1
    15    14    15    1
    16    15    16    1
    17    16    17    1
    18     5     6   ar
    19     6     7   ar
    20     7    18    1
    21    18    19    1
    22    19    20    1
    23    20    21    1
    24    21    22    1
    25    22    23    1
    26    23    24    1
    27     7     8   ar
    28     8     9   ar
    29     9    10   ar
    30    28    29   ar
    31    29    30   ar
    32    30    31    1
    33    31    32    1
    34    31    33    1
    35    30    25   ar
    36    10     1   ar
    37     9     4   ar
    38    16    11    1
    39    23    18    1
    40    33    34    1
@<TRIPOS>MOLECULE
*****
 36 40 0 0 0
SMALL
GASTEIGER

@<TRIPOS>ATOM
      1 C         140.9117  138.9864  158.9846 C.ar    1  UNL1        0.0829
      2 C         140.2778  140.3389  158.8474 C.ar    1  UNL1        0.0193
      3 C         140.1713  141.2418  160.0405 C.ar    1  UNL1        0.0074
      4 C         140.6988  140.7921  161.3707 C.ar    1  UNL1        0.0676
      5 C         140.5923  141.6950  162.5639 C.ar    1  UNL1        0.1376
      6 N         141.1197  141.2454  163.8941 N.ar    1  UNL1       -0.1986
      7 C         141.7536  139.8928  164.0313 C.ar    1  UNL1        0.2227
      8 N         141.8601  138.9900  162.8382 N.ar    1  UNL1       -0.1944
      9 C         141.3327  139.4396  161.5079 C.ar    1  UNL1        0.1678
     10 N         141.4391  138.5368  160.3149 N.ar    1  UNL1       -0.2264
     11 N         139.9583  143.0475  162.4267 N.pl3   1  UNL1       -0.2897
     12 C         140.7653  144.2062  161.9204 C.3     1  UNL1        0.1242
     13 C         140.1313  145.5587  161.7832 C.3     1  UNL1        0.1636
     14 O         138.6904  145.7526  162.1523 O.3     1  UNL1       -0.3502
     15 C         137.8835  144.5939  162.6586 C.3     1  UNL1        0.1618
     16 C         138.5174  143.2414  162.7958 C.3     1  UNL1        0.1038
     17 C         137.7104  142.0828  163.3021 C.3     1  UNL1        0.0241
     18 N         142.2811  139.4432  165.3616 N.pl3   1  UNL1       -0.2747
     19 C         143.4368  138.4892  165.4265 C.3     1  UNL1        0.1256
     20 C         143.9643  138.0395  166.7568 C.3     1  UNL1        0.1637
     21 O         143.3359  138.5439  168.0221 O.3     1  UNL1       -0.3502
     22 C         142.1802  139.4978  167.9571 C.3     1  UNL1        0.1619
     23 C         141.6528  139.9475  166.6268 C.3     1  UNL1        0.1052
     24 C         140.4971  140.9014  166.5618 C.3     1  UNL1        0.0242
     25 C         141.2313  136.2777  155.4053 C.ar    1  UNL1        0.1369
     26 C         139.9454  136.9957  155.6900 C.ar    1  UNL1        0.0367
     27 C         139.8389  137.8986  156.8832 C.ar    1  UNL1        0.0046
     28 C         141.0182  138.0835  157.7915 C.ar    1  UNL1        0.0177
     29 C         142.3040  137.3655  157.5067 C.ar    1  UNL1        0.0026
     30 C         142.4106  136.4626  156.3137 C.ar    1  UNL1        0.0383
     31 C         143.6964  135.7445  156.0290 C.3     1  UNL1        0.1357
     32 C         143.8382  134.2929  156.3789 C.3     1  UNL1        0.0368
     33 O         144.8405  136.4782  155.3943 O.3     1  UNL1       -0.3799
     34 H         144.5846  137.4001  155.2345 H       1  UNL1        0.2108
     35 C         140.4611  135.6047  153.0171 C.3     1  UNL1        0.2525
     36 O         141.3378  135.3748  154.2123 O.3     1  UNL1       -0.4717
@<TRIPOS>BOND
     1    35    36    1
     2    36    25    1
     3    25    26   ar
     4    26    27   ar
     5    27    28   ar
     6    28     1    1
     7     1     2   ar
     8     2     3   ar
     9     3     4   ar
    10     4     5   ar
    11     5    11    1
    12    11    12    1
    13    12    13    1
    14    13    14    1
    15    14    15    1
    16    15    16    1
    17    16    17    1
    18     5     6   ar
    19     6     7   ar
    20     7    18    1
    21    18    19    1
    22    19    20    1
    23    20    21    1
    24    21    22    1
    25    22    23    1
    26    23    24    1
    27     7     8   ar
    28     8     9   ar
    29     9    10   ar
    30    28    29   ar
    31    29    30   ar
    32    30    31    1
    33    31    32    1
    34    31    33    1
    35    30    25   ar
    36    10     1   ar
    37     9     4   ar
    38    16    11    1
    39    23    18    1
    40    33    34    1
@<TRIPOS>MOLECULE
*****
 36 40 0 0 0
SMALL
GASTEIGER

@<TRIPOS>ATOM
      1 C         143.0122  137.2834  156.9360 C.ar    1  UNL1        0.0829
      2 C         142.5253  137.8615  158.2316 C.ar    1  UNL1        0.0193
      3 C         142.8439  139.2840  158.5849 C.ar    1  UNL1        0.0074
      4 C         143.6495  140.1284  157.6425 C.ar    1  UNL1        0.0676
      5 C         143.9681  141.5510  157.9959 C.ar    1  UNL1        0.1376
      6 N         144.7737  142.3955  157.0535 N.ar    1  UNL1       -0.1986
      7 C         145.2606  141.8173  155.7579 C.ar    1  UNL1        0.2227
      8 N         144.9419  140.3948  155.4046 N.ar    1  UNL1       -0.1944
      9 C         144.1364  139.5503  156.3469 C.ar    1  UNL1        0.1678
     10 N         143.8177  138.1278  155.9936 N.ar    1  UNL1       -0.2264
     11 N         143.4812  142.1291  159.2915 N.pl3   1  UNL1       -0.2897
     12 C         144.3374  142.0428  160.5201 C.3     1  UNL1        0.1242
     13 C         143.8504  142.6209  161.8158 C.3     1  UNL1        0.1636
     14 O         142.5073  143.2853  161.8828 O.3     1  UNL1       -0.3502
     15 C         141.6511  143.3716  160.6542 C.3     1  UNL1        0.1618
     16 C         142.1380  142.7936  159.3586 C.3     1  UNL1        0.1038
     17 C         141.2818  142.8799  158.1300 C.3     1  UNL1        0.0241
     18 N         146.0661  142.6617  154.8155 N.pl3   1  UNL1       -0.2747
     19 C         147.5442  142.4406  154.6870 C.3     1  UNL1        0.1256
     20 C         148.3498  143.2850  153.7447 C.3     1  UNL1        0.1637
     21 O         147.6772  144.3506  152.9308 O.3     1  UNL1       -0.3502
     22 C         146.1992  144.5717  153.0593 C.3     1  UNL1        0.1619
     23 C         145.3937  143.7273  154.0017 C.3     1  UNL1        0.1052
     24 C         143.9157  143.9484  154.1302 C.3     1  UNL1        0.0242
     25 C         142.0563  133.0157  155.8760 C.ar    1  UNL1        0.1369
     26 C         141.2963  134.1368  155.2315 C.ar    1  UNL1        0.0367
     27 C         141.6149  135.5594  155.5848 C.ar    1  UNL1        0.0046
     28 C         142.6935  135.8608  156.5826 C.ar    1  UNL1        0.0177
     29 C         143.4535  134.7397  157.2272 C.ar    1  UNL1        0.0026
     30 C         143.1349  133.3171  156.8739 C.ar    1  UNL1        0.0383
     31 C         143.8949  132.1960  157.5185 C.3     1  UNL1        0.1357
     32 C         145.3223  132.3983  157.9327 C.3     1  UNL1        0.0368
     33 O         143.2275  130.8725  157.7489 O.3     1  UNL1       -0.3799
     34 H         142.3136  130.9107  157.4258 H       1  UNL1        0.2108
     35 C         140.9647  131.2855  154.2746 C.3     1  UNL1        0.2525
     36 O         141.7377  131.5931  155.5227 O.3     1  UNL1       -0.4717
@<TRIPOS>BOND
     1    35    36    1
     2    36    25    1
     3    25    26   ar
     4    26    27   ar
     5    27    28   ar
     6    28     1    1
     7     1     2   ar
     8     2     3   ar
     9     3     4   ar
    10     4     5   ar
    11     5    11    1
    12    11    12    1
    13    12    13    1
    14    13    14    1
    15    14    15    1
    16    15    16    1
    17    16    17    1
    18     5     6   ar
    19     6     7   ar
    20     7    18    1
    21    18    19    1
    22    19    20    1
    23    20    21    1
    24    21    22    1
    25    22    23    1
    26    23    24    1
    27     7     8   ar
    28     8     9   ar
    29     9    10   ar
    30    28    29   ar
    31    29    30   ar
    32    30    31    1
    33    31    32    1
    34    31    33    1
    35    30    25   ar
    36    10     1   ar
    37     9     4   ar
    38    16    11    1
    39    23    18    1
    40    33    34    1
@<TRIPOS>MOLECULE
*****
 36 40 0 0 0
SMALL
GASTEIGER

@<TRIPOS>ATOM
      1 C         141.5130  144.1452  159.9600 C.ar    1  UNL1        0.0829
      2 C         141.7154  145.4125  159.1835 C.ar    1  UNL1        0.0193
      3 C         141.0120  145.6097  157.8734 C.ar    1  UNL1        0.0074
      4 C         140.1062  144.5397  157.3399 C.ar    1  UNL1        0.0676
      5 C         139.4028  144.7370  156.0297 C.ar    1  UNL1        0.1376
      6 N         138.4971  143.6669  155.4962 N.ar    1  UNL1       -0.1986
      7 C         138.2948  142.3996  156.2728 C.ar    1  UNL1        0.2227
      8 N         138.9982  142.2024  157.5828 N.ar    1  UNL1       -0.1944
      9 C         139.9039  143.2724  158.1164 C.ar    1  UNL1        0.1678
     10 N         140.6073  143.0751  159.4264 N.ar    1  UNL1       -0.2264
     11 N         139.6052  146.0042  155.2532 N.pl3   1  UNL1       -0.2897
     12 C         138.8311  147.2372  155.6149 C.3     1  UNL1        0.1242
     13 C         139.0335  148.5045  154.8383 C.3     1  UNL1        0.1636
     14 O         140.0099  148.5389  153.7001 O.3     1  UNL1       -0.3502
     15 C         140.7839  147.3059  153.3385 C.3     1  UNL1        0.1618
     16 C         140.5816  146.0387  154.1150 C.3     1  UNL1        0.1038
     17 C         141.3556  144.8057  153.7533 C.3     1  UNL1        0.0241
     18 N         137.3890  141.3296  155.7392 N.pl3   1  UNL1       -0.2747
     19 C         135.9352  141.3245  156.1088 C.3     1  UNL1        0.1256
     20 C         135.0295  140.2545  155.5752 C.3     1  UNL1        0.1637
     21 O         135.5776  139.1895  154.6721 O.3     1  UNL1       -0.3502
     22 C         137.0313  139.1946  154.3026 C.3     1  UNL1        0.1619
     23 C         137.9370  140.2646  154.8362 C.3     1  UNL1        0.1052
     24 C         139.3908  140.2697  154.4667 C.3     1  UNL1        0.0242
     25 C         143.6232  143.5533  163.8903 C.ar    1  UNL1        0.1369
     26 C         142.6224  144.6598  163.7356 C.ar    1  UNL1        0.0367
     27 C         141.9190  144.8571  162.4254 C.ar    1  UNL1        0.0046
     28 C         142.2164  143.9479  161.2701 C.ar    1  UNL1        0.0177
     29 C         143.2173  142.8414  161.4248 C.ar    1  UNL1        0.0026
     30 C         143.9207  142.6441  162.7348 C.ar    1  UNL1        0.0383
     31 C         144.9215  141.5376  162.8895 C.3     1  UNL1        0.1357
     32 C         144.5058  140.1137  162.6669 C.3     1  UNL1        0.0368
     33 O         146.3382  141.8550  163.2669 O.3     1  UNL1       -0.3799
     34 H         146.4376  142.8141  163.3722 H       1  UNL1        0.2108
     35 C         143.6590  142.5869  166.3016 C.3     1  UNL1        0.2525
     36 O         144.3266  143.3559  165.2003 O.3     1  UNL1       -0.4717
@<TRIPOS>BOND
     1    35    36    1
     2    36    25    1
     3    25    26   ar
     4    26    27   ar
     5    27    28   ar
     6    28     1    1
     7     1     2   ar
     8     2     3   ar
     9     3     4   ar
    10     4     5   ar
    11     5    11    1
    12    11    12    1
    13    12    13    1
    14    13    14    1
    15    14    15    1
    16    15    16    1
    17    16    17    1
    18     5     6   ar
    19     6     7   ar
    20     7    18    1
    21    18    19    1
    22    19    20    1
    23    20    21    1
    24    21    22    1
    25    22    23    1
    26    23    24    1
    27     7     8   ar
    28     8     9   ar
    29     9    10   ar
    30    28    29   ar
    31    29    30   ar
    32    30    31    1
    33    31    32    1
    34    31    33    1
    35    30    25   ar
    36    10     1   ar
    37     9     4   ar
    38    16    11    1
    39    23    18    1
    40    33    34    1
@<TRIPOS>MOLECULE
*****
 36 40 0 0 0
SMALL
GASTEIGER

@<TRIPOS>ATOM
      1 C         140.1330  144.9395  156.6894 C.ar    1  UNL1        0.0829
      2 C         140.3340  143.6251  155.9953 C.ar    1  UNL1        0.0193
      3 C         140.4941  142.3691  156.7996 C.ar    1  UNL1        0.0074
      4 C         140.4531  142.4276  158.2979 C.ar    1  UNL1        0.0676
      5 C         140.6132  141.1715  159.1021 C.ar    1  UNL1        0.1376
      6 N         140.5723  141.2299  160.6004 N.ar    1  UNL1       -0.1986
      7 C         140.3713  142.5445  161.2945 C.ar    1  UNL1        0.2227
      8 N         140.2112  143.8005  160.4902 N.ar    1  UNL1       -0.1944
      9 C         140.2522  143.7420  158.9919 C.ar    1  UNL1        0.1678
     10 N         140.0921  144.9980  158.1877 N.ar    1  UNL1       -0.2264
     11 N         140.8142  139.8570  158.4080 N.pl3   1  UNL1       -0.2897
     12 C         139.6276  139.0587  157.9554 C.3     1  UNL1        0.1242
     13 C         139.8287  137.7442  157.2613 C.3     1  UNL1        0.1636
     14 O         141.2162  137.2281  157.0198 O.3     1  UNL1       -0.3502
     15 C         142.4027  138.0264  157.4724 C.3     1  UNL1        0.1618
     16 C         142.2017  139.3408  158.1665 C.3     1  UNL1        0.1038
     17 C         143.3883  140.1391  158.6191 C.3     1  UNL1        0.0241
     18 N         140.3304  142.6030  162.7928 N.pl3   1  UNL1       -0.2747
     19 C         141.6085  142.6305  163.5774 C.3     1  UNL1        0.1256
     20 C         141.5676  142.6890  165.0757 C.3     1  UNL1        0.1637
     21 O         140.2485  142.7199  165.7894 O.3     1  UNL1       -0.3502
     22 C         138.9705  142.6923  165.0047 C.3     1  UNL1        0.1619
     23 C         139.0114  142.6339  163.5064 C.3     1  UNL1        0.1052
     24 C         137.7333  142.6063  162.7217 C.3     1  UNL1        0.0242
     25 C         139.6528  148.7077  154.2768 C.ar    1  UNL1        0.1369
     26 C         140.3541  147.5217  153.6837 C.ar    1  UNL1        0.0367
     27 C         140.5141  146.2657  154.4880 C.ar    1  UNL1        0.0046
     28 C         139.9730  146.1956  155.8852 C.ar    1  UNL1        0.0177
     29 C         139.2718  147.3816  156.4782 C.ar    1  UNL1        0.0026
     30 C         139.1117  148.6377  155.6741 C.ar    1  UNL1        0.0383
     31 C         138.4105  149.8237  156.2671 C.3     1  UNL1        0.1357
     32 C         138.0905  149.8504  157.7323 C.3     1  UNL1        0.0368
     33 O         138.0292  150.9830  155.3949 O.3     1  UNL1       -0.3799
     34 H         138.3065  150.8060  154.4824 H       1  UNL1        0.2108
     35 C         139.8152  149.9626  152.0077 C.3     1  UNL1        0.2525
     36 O         139.4928  149.9638  153.4726 O.3     1  UNL1       -0.4717
@<TRIPOS>BOND
     1    35    36    1
     2    36    25    1
     3    25    26   ar
     4    26    27   ar
     5    27    28   ar
     6    28     1    1
     7     1     2   ar
     8     2     3   ar
     9     3     4   ar
    10     4     5   ar
    11     5    11    1
    12    11    12    1
    13    12    13    1
    14    13    14    1
    15    14    15    1
    16    15    16    1
    17    16    17    1
    18     5     6   ar
    19     6     7   ar
    20     7    18    1
    21    18    19    1
    22    19    20    1
    23    20    21    1
    24    21    22    1
    25    22    23    1
    26    23    24    1
    27     7     8   ar
    28     8     9   ar
    29     9    10   ar
    30    28    29   ar
    31    29    30   ar
    32    30    31    1
    33    31    32    1
    34    31    33    1
    35    30    25   ar
    36    10     1   ar
    37     9     4   ar
    38    16    11    1
    39    23    18    1
    40    33    34    1
@<TRIPOS>MOLECULE
*****
 36 40 0 0 0
SMALL
GASTEIGER

@<TRIPOS>ATOM
      1 C         140.5299  140.6038  163.2291 C.ar    1  UNL1        0.0829
      2 C         140.5070  142.0077  162.7015 C.ar    1  UNL1        0.0193
      3 C         140.7070  142.2618  161.2368 C.ar    1  UNL1        0.0074
      4 C         140.9299  141.1119  160.2997 C.ar    1  UNL1        0.0676
      5 C         141.1299  141.3660  158.8349 C.ar    1  UNL1        0.1376
      6 N         141.3528  140.2162  157.8978 N.ar    1  UNL1       -0.1986
      7 C         141.3757  138.8122  158.4255 C.ar    1  UNL1        0.2227
      8 N         141.1757  138.5581  159.8902 N.ar    1  UNL1       -0.1944
      9 C         140.9528  139.7080  160.8273 C.ar    1  UNL1        0.1678
     10 N         140.7528  139.4539  162.2920 N.ar    1  UNL1       -0.2264
     11 N         141.1070  142.7700  158.3073 N.pl3   1  UNL1       -0.2897
     12 C         139.8129  143.3818  157.8593 C.3     1  UNL1        0.1242
     13 C         139.7900  144.7858  157.3316 C.3     1  UNL1        0.1636
     14 O         141.0613  145.5779  157.2521 O.3     1  UNL1       -0.3502
     15 C         142.3555  144.9660  157.7001 C.3     1  UNL1        0.1618
     16 C         142.3784  143.5621  158.2277 C.3     1  UNL1        0.1038
     17 C         143.6726  142.9503  158.6757 C.3     1  UNL1        0.0241
     18 N         141.5986  137.6623  157.4884 N.pl3   1  UNL1       -0.2747
     19 C         142.8417  136.8307  157.6040 C.3     1  UNL1        0.1256
     20 C         143.0646  135.6808  156.6669 C.3     1  UNL1        0.1637
     21 O         142.0444  135.3626  155.6142 O.3     1  UNL1       -0.3502
     22 C         140.8015  136.1943  155.4986 C.3     1  UNL1        0.1619
     23 C         140.5786  137.3441  156.4357 C.3     1  UNL1        0.1052
     24 C         139.3356  138.1757  156.3201 C.3     1  UNL1        0.0242
     25 C         139.9299  139.8414  167.6233 C.ar    1  UNL1        0.1369
     26 C         138.7469  139.8920  166.7025 C.ar    1  UNL1        0.0367
     27 C         138.9469  140.1461  165.2378 C.ar    1  UNL1        0.0046
     28 C         140.3299  140.3496  164.6939 C.ar    1  UNL1        0.0177
     29 C         141.5129  140.2990  165.6146 C.ar    1  UNL1        0.0026
     30 C         141.3130  140.0448  167.0793 C.ar    1  UNL1        0.0383
     31 C         142.4960  139.9942  168.0001 C.3     1  UNL1        0.1357
     32 C         142.9050  141.2187  168.7638 C.3     1  UNL1        0.0368
     33 O         143.2701  138.7189  168.1573 O.3     1  UNL1       -0.3799
     34 H         142.8765  138.0309  167.5982 H       1  UNL1        0.2108
     35 C         138.9434  140.5587  169.9172 C.3     1  UNL1        0.2525
     36 O         139.7300  139.5872  169.0880 O.3     1  UNL1       -0.4717
@<TRIPOS>BOND
     1    35    36    1
     2    36    25    1
     3    25    26   ar
     4    26    27   ar
     5    27    28   ar
     6    28     1    1
     7     1     2   ar
     8     2     3   ar
     9     3     4   ar
    10     4     5   ar
    11     5    11    1
    12    11    12    1
    13    12    13    1
    14    13    14    1
    15    14    15    1
    16    15    16    1
    17    16    17    1
    18     5     6   ar
    19     6     7   ar
    20     7    18    1
    21    18    19    1
    22    19    20    1
    23    20    21    1
    24    21    22    1
    25    22    23    1
    26    23    24    1
    27     7     8   ar
    28     8     9   ar
    29     9    10   ar
    30    28    29   ar
    31    29    30   ar
    32    30    31    1
    33    31    32    1
    34    31    33    1
    35    30    25   ar
    36    10     1   ar
    37     9     4   ar
    38    16    11    1
    39    23    18    1
    40    33    34    1
