@<TRIPOS>MOLECULE
*****
 24 26 0 0 0
SMALL
GASTEIGER

@<TRIPOS>ATOM
      1 S         139.1987  138.9805  166.7565 S.O2    1  UNL1        0.0129
      2 O         140.5041  139.2270  166.0602 O.2     1  UNL1       -0.1683
      3 O         137.8932  138.7340  167.4528 O.2     1  UNL1       -0.1683
      4 C         139.6302  139.8738  167.8816 C.ar    1  UNL1        0.1066
      5 C         138.7464  140.0499  169.0807 C.ar    1  UNL1        0.0199
      6 C         139.1779  140.9432  170.2057 C.ar    1  UNL1        0.0210
      7 C         140.4933  141.6604  170.1317 C.ar    1  UNL1        0.0893
      8 N         141.1794  142.5991  171.0794 N.ar    1  UNL1       -0.2245
      9 C         142.4872  143.0032  170.4660 C.ar    1  UNL1        0.1567
     10 N         143.4958  143.9331  171.0728 N.pl3   1  UNL1       -0.3375
     11 S         142.6094  142.3142  169.1392 S.2     1  UNL1       -0.0519
     12 C         141.3771  141.4843  168.9326 C.ar    1  UNL1        0.0510
     13 C         140.9455  140.5910  167.8076 C.ar    1  UNL1        0.0264
     14 H         143.3244  144.3383  171.9535 H       1  UNL1        0.1442
     15 H         144.3291  144.1381  170.5904 H       1  UNL1        0.1442
     16 C         138.7672  138.0872  165.6314 C.3     1  UNL1        0.1823
     17 C         138.2852  139.7655  161.4840 C.ar    1  UNL1        0.0684
     18 C         138.8666  138.3961  161.6761 C.ar    1  UNL1        0.0100
     19 C         139.0273  137.8367  163.0585 C.ar    1  UNL1       -0.0019
     20 C         138.6065  138.6467  164.2489 C.ar    1  UNL1        0.0018
     21 C         138.0252  140.0160  164.0568 C.ar    1  UNL1       -0.0019
     22 C         137.8645  140.5754  162.6744 C.ar    1  UNL1        0.0100
     23 N         137.9639  140.8844  158.7191 N.1     1  UNL1       -0.1908
     24 C         138.1246  140.3249  160.1015 C.1     1  UNL1        0.1004
@<TRIPOS>BOND
     1    23    24    3
     2    24    17    1
     3    17    18   ar
     4    18    19   ar
     5    19    20   ar
     6    20    16    1
     7    16     1    1
     8     1     2    2
     9     1     3    2
    10     1     4    1
    11     4     5   ar
    12     5     6   ar
    13     6     7   ar
    14     7     8   ar
    15     8     9   ar
    16     9    10    1
    17     9    11   ar
    18    11    12   ar
    19    12    13   ar
    20    20    21   ar
    21    21    22   ar
    22    22    17   ar
    23    13     4   ar
    24    12     7   ar
    25    10    14    1
    26    10    15    1
@<TRIPOS>MOLECULE
*****
 24 26 0 0 0
SMALL
GASTEIGER

@<TRIPOS>ATOM
      1 S         140.7327  139.0020  166.0906 S.O2    1  UNL1        0.0129
      2 O         142.2288  139.0050  165.9824 O.2     1  UNL1       -0.1683
      3 O         139.2367  138.9990  166.1989 O.2     1  UNL1       -0.1683
      4 C         140.8152  139.9434  167.2556 C.ar    1  UNL1        0.1066
      5 C         139.6012  140.2033  168.0973 C.ar    1  UNL1        0.0199
      6 C         139.6837  141.1446  169.2622 C.ar    1  UNL1        0.0210
      7 C         140.9803  141.8262  169.5853 C.ar    1  UNL1        0.0893
      8 N         141.3623  142.7977  170.6625 N.ar    1  UNL1       -0.2245
      9 C         142.8125  143.1382  170.4864 C.ar    1  UNL1        0.1567
     10 N         143.6088  144.0753  171.3455 N.pl3   1  UNL1       -0.3375
     11 S         143.3267  142.3772  169.3005 S.2     1  UNL1       -0.0519
     12 C         142.1943  141.5664  168.7435 C.ar    1  UNL1        0.0510
     13 C         142.1118  140.6250  167.5787 C.ar    1  UNL1        0.0264
     14 H         143.1800  144.5305  172.1059 H       1  UNL1        0.1442
     15 H         144.5601  144.2351  171.1490 H       1  UNL1        0.1442
     16 C         140.6503  138.0606  164.9258 C.3     1  UNL1        0.1823
     17 C         138.7837  139.4187  161.0629 C.ar    1  UNL1        0.0684
     18 C         138.2746  138.1859  161.7492 C.ar    1  UNL1        0.0100
     19 C         138.8968  137.7332  163.0368 C.ar    1  UNL1       -0.0019
     20 C         140.0281  138.5133  163.6382 C.ar    1  UNL1        0.0018
     21 C         140.5372  139.7461  162.9519 C.ar    1  UNL1       -0.0019
     22 C         139.9150  140.1988  161.6643 C.ar    1  UNL1        0.0100
     23 N         137.5394  140.3242  158.4877 N.1     1  UNL1       -0.1908
     24 C         138.1616  139.8715  159.7753 C.1     1  UNL1        0.1004
@<TRIPOS>BOND
     1    23    24    3
     2    24    17    1
     3    17    18   ar
     4    18    19   ar
     5    19    20   ar
     6    20    16    1
     7    16     1    1
     8     1     2    2
     9     1     3    2
    10     1     4    1
    11     4     5   ar
    12     5     6   ar
    13     6     7   ar
    14     7     8   ar
    15     8     9   ar
    16     9    10    1
    17     9    11   ar
    18    11    12   ar
    19    12    13   ar
    20    20    21   ar
    21    21    22   ar
    22    22    17   ar
    23    13     4   ar
    24    12     7   ar
    25    10    14    1
    26    10    15    1
@<TRIPOS>MOLECULE
*****
 24 26 0 0 0
SMALL
GASTEIGER

@<TRIPOS>ATOM
      1 S         139.0072  139.3967  166.4833 S.O2    1  UNL1        0.0129
      2 O         139.8542  140.2854  165.6214 O.2     1  UNL1       -0.1683
      3 O         138.1603  138.5080  167.3452 O.2     1  UNL1       -0.1683
      4 C         139.5091  140.1049  167.7067 C.ar    1  UNL1        0.1066
      5 C         138.7753  139.9664  169.0075 C.ar    1  UNL1        0.0199
      6 C         139.2772  140.6746  170.2308 C.ar    1  UNL1        0.0210
      7 C         140.5129  141.5214  170.1532 C.ar    1  UNL1        0.0893
      8 N         141.2402  142.3325  171.1844 N.ar    1  UNL1       -0.2245
      9 C         142.4235  142.9722  170.5208 C.ar    1  UNL1        0.1567
     10 N         143.4268  143.8701  171.1823 N.pl3   1  UNL1       -0.3375
     11 S         142.4275  142.5566  169.0795 S.2     1  UNL1       -0.0519
     12 C         141.2467  141.6599  168.8524 C.ar    1  UNL1        0.0510
     13 C         140.7448  140.9517  167.6291 C.ar    1  UNL1        0.0264
     14 H         143.3389  144.0860  172.1388 H       1  UNL1        0.1442
     15 H         144.1731  144.2434  170.6599 H       1  UNL1        0.1442
     16 C         138.5054  138.6885  165.2599 C.3     1  UNL1        0.1823
     17 C         141.2369  138.0726  161.7372 C.ar    1  UNL1        0.0684
     18 C         139.9910  138.8942  161.5856 C.ar    1  UNL1        0.0100
     19 C         139.0805  139.0995  162.7598 C.ar    1  UNL1       -0.0019
     20 C         139.4159  138.4832  164.0857 C.ar    1  UNL1        0.0018
     21 C         140.6617  137.6617  164.2372 C.ar    1  UNL1       -0.0019
     22 C         141.5722  137.4564  163.0630 C.ar    1  UNL1        0.0100
     23 N         143.0578  137.6620  159.3887 N.1     1  UNL1       -0.1908
     24 C         142.1473  137.8673  160.5629 C.1     1  UNL1        0.1004
@<TRIPOS>BOND
     1    23    24    3
     2    24    17    1
     3    17    18   ar
     4    18    19   ar
     5    19    20   ar
     6    20    16    1
     7    16     1    1
     8     1     2    2
     9     1     3    2
    10     1     4    1
    11     4     5   ar
    12     5     6   ar
    13     6     7   ar
    14     7     8   ar
    15     8     9   ar
    16     9    10    1
    17     9    11   ar
    18    11    12   ar
    19    12    13   ar
    20    20    21   ar
    21    21    22   ar
    22    22    17   ar
    23    13     4   ar
    24    12     7   ar
    25    10    14    1
    26    10    15    1
@<TRIPOS>MOLECULE
*****
 24 26 0 0 0
SMALL
GASTEIGER

@<TRIPOS>ATOM
      1 S         139.2564  140.1465  165.9177 S.O2    1  UNL1        0.0129
      2 O         139.6868  141.2413  164.9871 O.2     1  UNL1       -0.1683
      3 O         138.8259  139.0517  166.8483 O.2     1  UNL1       -0.1683
      4 C         140.3698  140.5065  166.8562 C.ar    1  UNL1        0.1066
      5 C         141.6111  139.6659  166.9047 C.ar    1  UNL1        0.0199
      6 C         142.7245  140.0260  167.8432 C.ar    1  UNL1        0.0210
      7 C         142.5964  141.2266  168.7332 C.ar    1  UNL1        0.0893
      8 N         143.5212  141.8238  169.7523 N.ar    1  UNL1       -0.2245
      9 C         142.8512  143.0334  170.3336 C.ar    1  UNL1        0.1567
     10 N         143.4201  143.9345  171.3893 N.pl3   1  UNL1       -0.3375
     11 S         141.5125  143.1838  169.6738 S.2     1  UNL1       -0.0519
     12 C         141.3551  142.0672  168.6848 C.ar    1  UNL1        0.0510
     13 C         140.2417  141.7071  167.7463 C.ar    1  UNL1        0.0264
     14 H         144.3124  143.7524  171.7633 H       1  UNL1        0.1442
     15 H         142.9012  144.7080  171.7082 H       1  UNL1        0.1442
     16 C         138.1430  139.7865  164.9792 C.3     1  UNL1        0.1823
     17 C         139.0553  138.7644  160.6928 C.ar    1  UNL1        0.0684
     18 C         139.7251  138.0096  161.8028 C.ar    1  UNL1        0.0100
     19 C         139.4210  138.3503  163.2316 C.ar    1  UNL1       -0.0019
     20 C         138.4471  139.4458  163.5504 C.ar    1  UNL1        0.0018
     21 C         137.7774  140.2005  162.4405 C.ar    1  UNL1       -0.0019
     22 C         138.0815  139.8598  161.0117 C.ar    1  UNL1        0.0100
     23 N         139.6635  138.0829  157.8353 N.1     1  UNL1       -0.1908
     24 C         139.3594  138.4236  159.2641 C.1     1  UNL1        0.1004
@<TRIPOS>BOND
     1    23    24    3
     2    24    17    1
     3    17    18   ar
     4    18    19   ar
     5    19    20   ar
     6    20    16    1
     7    16     1    1
     8     1     2    2
     9     1     3    2
    10     1     4    1
    11     4     5   ar
    12     5     6   ar
    13     6     7   ar
    14     7     8   ar
    15     8     9   ar
    16     9    10    1
    17     9    11   ar
    18    11    12   ar
    19    12    13   ar
    20    20    21   ar
    21    21    22   ar
    22    22    17   ar
    23    13     4   ar
    24    12     7   ar
    25    10    14    1
    26    10    15    1
@<TRIPOS>MOLECULE
*****
 24 26 0 0 0
SMALL
GASTEIGER

@<TRIPOS>ATOM
      1 S         138.6380  139.1275  165.2738 S.O2    1  UNL1        0.0129
      2 O         139.3616  137.8159  165.1964 O.2     1  UNL1       -0.1683
      3 O         137.9144  140.4391  165.3513 O.2     1  UNL1       -0.1683
      4 C         138.6376  139.2156  163.7764 C.ar    1  UNL1        0.1066
      5 C         138.7780  137.9705  162.9518 C.ar    1  UNL1        0.0199
      6 C         138.7775  138.0587  161.4544 C.ar    1  UNL1        0.0210
      7 C         138.6367  139.3919  160.7816 C.ar    1  UNL1        0.0893
      8 N         138.6025  139.7876  159.3351 N.ar    1  UNL1       -0.2245
      9 C         138.4411  141.2773  159.2658 C.ar    1  UNL1        0.1567
     10 N         138.3595  142.0980  158.0128 N.pl3   1  UNL1       -0.3375
     11 S         138.3754  141.8022  160.6694 S.2     1  UNL1       -0.0519
     12 C         138.4963  140.6370  161.6062 C.ar    1  UNL1        0.0510
     13 C         138.4968  140.5489  163.1036 C.ar    1  UNL1        0.0264
     14 H         138.4125  141.6596  157.1329 H       1  UNL1        0.1442
     15 H         138.2530  143.0750  158.0703 H       1  UNL1        0.1442
     16 C         138.6385  139.0394  166.7712 C.3     1  UNL1        0.1823
     17 C         141.2559  141.7901  169.1863 C.ar    1  UNL1        0.0684
     18 C         141.6032  141.4857  167.7591 C.ar    1  UNL1        0.0100
     19 C         140.7308  140.5688  166.9541 C.ar    1  UNL1       -0.0019
     20 C         139.5109  139.9563  167.5762 C.ar    1  UNL1        0.0018
     21 C         139.1636  140.2607  169.0033 C.ar    1  UNL1       -0.0019
     22 C         140.0361  141.1776  169.8084 C.ar    1  UNL1        0.0100
     23 N         143.0008  143.6239  170.7964 N.1     1  UNL1       -0.1908
     24 C         142.1283  142.7070  169.9913 C.1     1  UNL1        0.1004
@<TRIPOS>BOND
     1    23    24    3
     2    24    17    1
     3    17    18   ar
     4    18    19   ar
     5    19    20   ar
     6    20    16    1
     7    16     1    1
     8     1     2    2
     9     1     3    2
    10     1     4    1
    11     4     5   ar
    12     5     6   ar
    13     6     7   ar
    14     7     8   ar
    15     8     9   ar
    16     9    10    1
    17     9    11   ar
    18    11    12   ar
    19    12    13   ar
    20    20    21   ar
    21    21    22   ar
    22    22    17   ar
    23    13     4   ar
    24    12     7   ar
    25    10    14    1
    26    10    15    1
@<TRIPOS>MOLECULE
*****
 24 26 0 0 0
SMALL
GASTEIGER

@<TRIPOS>ATOM
      1 S         139.8290  141.7938  163.6315 S.O2    1  UNL1        0.0129
      2 O         141.1468  141.0827  163.5438 O.2     1  UNL1       -0.1683
      3 O         138.5112  142.5049  163.7192 O.2     1  UNL1       -0.1683
      4 C         140.2920  142.7790  162.5994 C.ar    1  UNL1        0.1066
      5 C         140.2009  144.2509  162.8735 C.ar    1  UNL1        0.0199
      6 C         140.6639  145.2360  161.8414 C.ar    1  UNL1        0.0210
      7 C         141.2179  144.7492  160.5352 C.ar    1  UNL1        0.0893
      8 N         141.7482  145.4777  159.3360 N.ar    1  UNL1       -0.2245
      9 C         142.1670  144.4561  158.3208 C.ar    1  UNL1        0.1567
     10 N         142.7541  144.7437  156.9707 N.pl3   1  UNL1       -0.3375
     11 S         141.8955  143.0961  158.8925 S.2     1  UNL1       -0.0519
     12 C         141.3090  143.2773  160.2611 C.ar    1  UNL1        0.0510
     13 C         140.8460  142.2922  161.2932 C.ar    1  UNL1        0.0264
     14 H         142.8951  145.6748  156.6835 H       1  UNL1        0.1442
     15 H         142.9986  144.0015  156.3719 H       1  UNL1        0.1442
     16 C         139.3661  140.8087  164.6635 C.3     1  UNL1        0.1823
     17 C         140.1848  141.5654  169.0233 C.ar    1  UNL1        0.0684
     18 C         140.5181  142.6147  168.0044 C.ar    1  UNL1        0.0100
     19 C         140.2452  142.3624  166.5512 C.ar    1  UNL1       -0.0019
     20 C         139.6390  141.0609  166.1168 C.ar    1  UNL1        0.0018
     21 C         139.3057  140.0117  167.1356 C.ar    1  UNL1       -0.0019
     22 C         139.5786  140.2640  168.5888 C.ar    1  UNL1        0.0100
     23 N         140.7305  142.0699  171.9297 N.1     1  UNL1       -0.1908
     24 C         140.4577  141.8176  170.4765 C.1     1  UNL1        0.1004
@<TRIPOS>BOND
     1    23    24    3
     2    24    17    1
     3    17    18   ar
     4    18    19   ar
     5    19    20   ar
     6    20    16    1
     7    16     1    1
     8     1     2    2
     9     1     3    2
    10     1     4    1
    11     4     5   ar
    12     5     6   ar
    13     6     7   ar
    14     7     8   ar
    15     8     9   ar
    16     9    10    1
    17     9    11   ar
    18    11    12   ar
    19    12    13   ar
    20    20    21   ar
    21    21    22   ar
    22    22    17   ar
    23    13     4   ar
    24    12     7   ar
    25    10    14    1
    26    10    15    1
@<TRIPOS>MOLECULE
*****
 24 26 0 0 0
SMALL
GASTEIGER

@<TRIPOS>ATOM
      1 S         139.0170  139.2397  164.8704 S.O2    1  UNL1        0.0129
      2 O         140.1064  138.3225  165.3413 O.2     1  UNL1       -0.1683
      3 O         137.9275  140.1569  164.3995 O.2     1  UNL1       -0.1683
      4 C         139.4409  139.0136  163.4494 C.ar    1  UNL1        0.1066
      5 C         138.4658  138.4555  162.4556 C.ar    1  UNL1        0.0199
      6 C         138.8897  138.2294  161.0347 C.ar    1  UNL1        0.0210
      7 C         140.2887  138.5614  160.6075 C.ar    1  UNL1        0.0893
      8 N         140.9884  138.4470  159.2855 N.ar    1  UNL1       -0.2245
      9 C         142.3959  138.9344  159.4624 C.ar    1  UNL1        0.1567
     10 N         143.4485  138.9955  158.3954 N.pl3   1  UNL1       -0.3375
     11 S         142.5661  139.3500  160.8936 S.2     1  UNL1       -0.0519
     12 C         141.2639  139.1194  161.6013 C.ar    1  UNL1        0.0510
     13 C         140.8399  139.3455  163.0222 C.ar    1  UNL1        0.0264
     14 H         143.2396  138.6984  157.4803 H       1  UNL1        0.1442
     15 H         144.3481  139.3328  158.6101 H       1  UNL1        0.1442
     16 C         138.5931  139.4658  166.2914 C.3     1  UNL1        0.1823
     17 C         141.0834  142.0601  168.9966 C.ar    1  UNL1        0.0684
     18 C         141.0464  142.3324  167.5219 C.ar    1  UNL1        0.0100
     19 C         140.2163  141.4676  166.6201 C.ar    1  UNL1       -0.0019
     20 C         139.4232  140.3306  167.1931 C.ar    1  UNL1        0.0018
     21 C         139.4602  140.0584  168.6677 C.ar    1  UNL1       -0.0019
     22 C         140.2903  140.9232  169.5694 C.ar    1  UNL1        0.0100
     23 N         142.7436  143.7897  170.8000 N.1     1  UNL1       -0.1908
     24 C         141.9135  142.9249  169.8983 C.1     1  UNL1        0.1004
@<TRIPOS>BOND
     1    23    24    3
     2    24    17    1
     3    17    18   ar
     4    18    19   ar
     5    19    20   ar
     6    20    16    1
     7    16     1    1
     8     1     2    2
     9     1     3    2
    10     1     4    1
    11     4     5   ar
    12     5     6   ar
    13     6     7   ar
    14     7     8   ar
    15     8     9   ar
    16     9    10    1
    17     9    11   ar
    18    11    12   ar
    19    12    13   ar
    20    20    21   ar
    21    21    22   ar
    22    22    17   ar
    23    13     4   ar
    24    12     7   ar
    25    10    14    1
    26    10    15    1
@<TRIPOS>MOLECULE
*****
 24 26 0 0 0
SMALL
GASTEIGER

@<TRIPOS>ATOM
      1 S         142.9499  138.6359  164.8122 S.O2    1  UNL1        0.0129
      2 O         144.3334  139.1677  164.5818 O.2     1  UNL1       -0.1683
      3 O         141.5664  138.1041  165.0426 O.2     1  UNL1       -0.1683
      4 C         142.7344  138.5547  163.3300 C.ar    1  UNL1        0.1066
      5 C         143.9059  138.3763  162.4104 C.ar    1  UNL1        0.0199
      6 C         143.6903  138.2951  160.9282 C.ar    1  UNL1        0.0210
      7 C         142.3032  138.3923  160.3656 C.ar    1  UNL1        0.0893
      8 N         141.7852  138.3459  158.9586 N.ar    1  UNL1       -0.2245
      9 C         140.2935  138.4957  159.0087 C.ar    1  UNL1        0.1567
     10 N         139.3681  138.5049  157.8281 N.pl3   1  UNL1       -0.3375
     11 S         139.8896  138.6346  160.4466 S.2     1  UNL1       -0.0519
     12 C         141.1316  138.5707  161.2852 C.ar    1  UNL1        0.0510
     13 C         141.3472  138.6519  162.7674 C.ar    1  UNL1        0.0264
     14 H         139.7304  138.4065  156.9180 H       1  UNL1        0.1442
     15 H         138.3986  138.6093  157.9634 H       1  UNL1        0.1442
     16 C         143.1655  138.7172  166.2944 C.3     1  UNL1        0.1823
     17 C         141.3690  142.1065  168.6470 C.ar    1  UNL1        0.0684
     18 C         141.7239  140.8215  169.3347 C.ar    1  UNL1        0.0100
     19 C         142.3227  139.6917  168.5505 C.ar    1  UNL1       -0.0019
     20 C         142.5667  139.8469  167.0786 C.ar    1  UNL1        0.0018
     21 C         142.2118  141.1319  166.3910 C.ar    1  UNL1       -0.0019
     22 C         141.6129  142.2617  167.1752 C.ar    1  UNL1        0.0100
     23 N         140.1712  144.3660  170.2155 N.1     1  UNL1       -0.1908
     24 C         140.7701  143.2362  169.4312 C.1     1  UNL1        0.1004
@<TRIPOS>BOND
     1    23    24    3
     2    24    17    1
     3    17    18   ar
     4    18    19   ar
     5    19    20   ar
     6    20    16    1
     7    16     1    1
     8     1     2    2
     9     1     3    2
    10     1     4    1
    11     4     5   ar
    12     5     6   ar
    13     6     7   ar
    14     7     8   ar
    15     8     9   ar
    16     9    10    1
    17     9    11   ar
    18    11    12   ar
    19    12    13   ar
    20    20    21   ar
    21    21    22   ar
    22    22    17   ar
    23    13     4   ar
    24    12     7   ar
    25    10    14    1
    26    10    15    1
@<TRIPOS>MOLECULE
*****
 24 26 0 0 0
SMALL
GASTEIGER

@<TRIPOS>ATOM
      1 S         140.2218  138.0911  162.6965 S.O2    1  UNL1        0.0129
      2 O         141.0193  136.8795  163.0785 O.2     1  UNL1       -0.1683
      3 O         139.4244  139.3027  162.3146 O.2     1  UNL1       -0.1683
      4 C         141.2390  138.4298  161.6474 C.ar    1  UNL1        0.1066
      5 C         142.6690  138.0144  161.8274 C.ar    1  UNL1        0.0199
      6 C         143.6861  138.3531  160.7783 C.ar    1  UNL1        0.0210
      7 C         143.2732  139.1072  159.5491 C.ar    1  UNL1        0.0893
      8 N         144.0470  139.5789  158.3537 N.ar    1  UNL1       -0.2245
      9 C         143.0952  140.2858  157.4349 C.ar    1  UNL1        0.1567
     10 N         143.4440  140.9168  156.1195 N.pl3   1  UNL1       -0.3375
     11 S         141.7332  140.2511  158.0625 S.2     1  UNL1       -0.0519
     12 C         141.8432  139.5226  159.3691 C.ar    1  UNL1        0.0510
     13 C         140.8261  139.1839  160.4182 C.ar    1  UNL1        0.0264
     14 H         144.3713  140.8878  155.7902 H       1  UNL1        0.1442
     15 H         142.7456  141.3600  155.5856 H       1  UNL1        0.1442
     16 C         139.2047  137.7524  163.7457 C.3     1  UNL1        0.1823
     17 C         139.3645  139.7650  167.7673 C.ar    1  UNL1        0.0684
     18 C         138.1312  139.0202  167.3499 C.ar    1  UNL1        0.0100
     19 C         138.0779  138.3493  166.0093 C.ar    1  UNL1       -0.0019
     20 C         139.2580  138.4233  165.0862 C.ar    1  UNL1        0.0018
     21 C         140.4912  139.1681  165.5037 C.ar    1  UNL1       -0.0019
     22 C         140.5444  139.8390  166.8442 C.ar    1  UNL1        0.0100
     23 N         139.4710  141.1068  170.4484 N.1     1  UNL1       -0.1908
     24 C         139.4177  140.4359  169.1079 C.1     1  UNL1        0.1004
@<TRIPOS>BOND
     1    23    24    3
     2    24    17    1
     3    17    18   ar
     4    18    19   ar
     5    19    20   ar
     6    20    16    1
     7    16     1    1
     8     1     2    2
     9     1     3    2
    10     1     4    1
    11     4     5   ar
    12     5     6   ar
    13     6     7   ar
    14     7     8   ar
    15     8     9   ar
    16     9    10    1
    17     9    11   ar
    18    11    12   ar
    19    12    13   ar
    20    20    21   ar
    21    21    22   ar
    22    22    17   ar
    23    13     4   ar
    24    12     7   ar
    25    10    14    1
    26    10    15    1
