@<TRIPOS>MOLECULE
*****
 35 38 0 0 0
SMALL
GASTEIGER

@<TRIPOS>ATOM
      1 N         139.4317  142.2015  164.2343 N.3     1  UNL1       -0.2689
      2 N         140.6864  144.2658  160.4377 N.pl3   1  UNL1       -0.2769
      3 C         140.9777  142.8070  160.6297 C.3     1  UNL1        0.0950
      4 C         140.5595  142.1189  161.8952 C.3     1  UNL1        0.0375
      5 C         139.8499  142.8896  162.9687 C.3     1  UNL1        0.0613
      6 C         139.5586  144.3485  162.7767 C.3     1  UNL1        0.0375
      7 C         139.9768  145.0366  161.5112 C.3     1  UNL1        0.0950
      8 N         140.5396  147.0135  155.9310 N.pl3   1  UNL1       -0.3278
      9 C         141.0371  146.2169  157.1006 C.ar    1  UNL1        0.2099
     10 N         140.2000  145.6885  158.2276 N.ar    1  UNL1       -0.1804
     11 C         141.1046  144.9540  159.1721 C.ar    1  UNL1        0.2395
     12 N         142.5008  145.0284  158.6289 N.ar    1  UNL1       -0.1349
     13 N         142.4591  145.8089  157.3487 N.ar    1  UNL1       -0.2453
     14 H         139.5827  147.2326  155.8559 H       1  UNL1        0.1451
     15 H         141.1700  147.3172  155.2384 H       1  UNL1        0.1451
     16 H         143.2297  146.0169  156.7724 H       1  UNL1        0.1919
     17 C         139.5648  142.9074  165.5511 C.3     1  UNL1        0.0991
     18 C         140.8009  142.7211  166.3803 C.ar    1  UNL1       -0.0061
     19 C         142.1521  142.7510  165.7296 C.ar    1  UNL1       -0.0029
     20 C         143.3881  142.5648  166.5588 C.ar    1  UNL1       -0.0003
     21 C         143.2729  142.3487  168.0387 C.ar    1  UNL1       -0.0000
     22 C         141.9217  142.3188  168.6894 C.ar    1  UNL1       -0.0003
     23 C         140.6857  142.5050  167.8602 C.ar    1  UNL1       -0.0029
     24 C         138.8803  140.8074  164.1830 C.3     1  UNL1        0.0916
     25 C         137.7627  140.4772  163.2385 C.3     1  UNL1        0.1533
     26 O         136.5965  141.4106  163.1010 O.3     1  UNL1       -0.3805
     27 H         136.1021  141.4354  163.9352 H       1  UNL1        0.2105
     28 C         139.4465  139.7436  165.0761 C.3     1  UNL1        0.0448
     29 C         140.9253  139.4935  165.1002 C.ar    1  UNL1       -0.0207
     30 C         141.7171  139.5538  163.8276 C.ar    1  UNL1       -0.0034
     31 C         143.1959  139.3036  163.8518 C.ar    1  UNL1        0.0111
     32 C         143.8829  138.9932  165.1486 C.ar    1  UNL1        0.0577
     33 CL        145.3617  138.7430  165.1727 Cl      1  UNL1       -0.0822
     34 C         143.0911  138.9329  166.4211 C.ar    1  UNL1        0.0111
     35 C         141.6123  139.1830  166.3970 C.ar    1  UNL1       -0.0034
@<TRIPOS>BOND
     1     8     9    1
     2     9    10   ar
     3    10    11   ar
     4    11     2    1
     5     2     3    1
     6     3     4    1
     7     4     5    1
     8     5     1    1
     9     1    17    1
    10    17    18    1
    11    18    19   ar
    12    19    20   ar
    13    20    21   ar
    14    21    22   ar
    15    22    23   ar
    16     1    24    1
    17    24    25    1
    18    25    26    1
    19    24    28    1
    20    28    29    1
    21    29    30   ar
    22    30    31   ar
    23    31    32   ar
    24    32    33    1
    25    32    34   ar
    26    34    35   ar
    27     5     6    1
    28     6     7    1
    29    11    12   ar
    30    12    13   ar
    31    13     9   ar
    32     7     2    1
    33    23    18   ar
    34    35    29   ar
    35     8    14    1
    36     8    15    1
    37    26    27    1
    38    13    16    1
@<TRIPOS>MOLECULE
*****
 35 38 0 0 0
SMALL
GASTEIGER

@<TRIPOS>ATOM
      1 N         138.5189  143.0859  163.4984 N.3     1  UNL1       -0.2689
      2 N         140.2303  144.7955  159.7038 N.pl3   1  UNL1       -0.2769
      3 C         140.0363  145.6761  160.9025 C.3     1  UNL1        0.0950
      4 C         139.4659  145.1062  162.1673 C.3     1  UNL1        0.0375
      5 C         139.0894  143.6557  162.2335 C.3     1  UNL1        0.0613
      6 C         139.2833  142.7751  161.0348 C.3     1  UNL1        0.0375
      7 C         139.8538  143.3450  159.7700 C.3     1  UNL1        0.0950
      8 N         140.6680  146.6238  154.7696 N.pl3   1  UNL1       -0.3278
      9 C         141.0019  146.2057  156.1709 C.ar    1  UNL1        0.2099
     10 N         140.0413  145.6412  157.1751 N.ar    1  UNL1       -0.1804
     11 C         140.8007  145.3653  158.4389 C.ar    1  UNL1        0.2395
     12 N         142.2308  145.7592  158.2157 N.ar    1  UNL1       -0.1349
     13 N         142.3551  146.2786  156.8140 N.ar    1  UNL1       -0.2453
     14 H         139.7456  146.5371  154.4366 H       1  UNL1        0.1451
     15 H         141.3713  146.9850  154.1829 H       1  UNL1        0.1451
     16 H         143.1801  146.6093  156.3905 H       1  UNL1        0.1919
     17 C         137.6271  141.8811  163.4428 C.3     1  UNL1        0.0991
     18 C         138.1413  140.5459  163.8933 C.ar    1  UNL1       -0.0061
     19 C         138.7718  139.6121  162.9031 C.ar    1  UNL1       -0.0029
     20 C         139.2860  138.2770  163.3535 C.ar    1  UNL1       -0.0003
     21 C         139.1696  137.8756  164.7942 C.ar    1  UNL1       -0.0000
     22 C         138.5391  138.8094  165.7843 C.ar    1  UNL1       -0.0003
     23 C         138.0249  140.1445  165.3339 C.ar    1  UNL1       -0.0029
     24 C         138.8403  143.7209  164.8188 C.3     1  UNL1        0.0916
     25 C         137.7687  144.4348  165.5883 C.3     1  UNL1        0.1533
     26 O         138.1111  145.6478  166.4016 O.3     1  UNL1       -0.3805
     27 H         138.6938  145.3923  167.1337 H       1  UNL1        0.2105
     28 C         140.2332  143.6420  165.3697 C.3     1  UNL1        0.0448
     29 C         140.9124  142.3113  165.5039 C.ar    1  UNL1       -0.0207
     30 C         141.5849  141.6893  164.3161 C.ar    1  UNL1       -0.0034
     31 C         142.2641  140.3586  164.4504 C.ar    1  UNL1        0.0111
     32 C         142.2708  139.6500  165.7725 C.ar    1  UNL1        0.0577
     33 CL        142.9499  138.3193  165.9068 Cl      1  UNL1       -0.0822
     34 C         141.5983  140.2720  166.9603 C.ar    1  UNL1        0.0111
     35 C         140.9191  141.6027  166.8260 C.ar    1  UNL1       -0.0034
@<TRIPOS>BOND
     1     8     9    1
     2     9    10   ar
     3    10    11   ar
     4    11     2    1
     5     2     3    1
     6     3     4    1
     7     4     5    1
     8     5     1    1
     9     1    17    1
    10    17    18    1
    11    18    19   ar
    12    19    20   ar
    13    20    21   ar
    14    21    22   ar
    15    22    23   ar
    16     1    24    1
    17    24    25    1
    18    25    26    1
    19    24    28    1
    20    28    29    1
    21    29    30   ar
    22    30    31   ar
    23    31    32   ar
    24    32    33    1
    25    32    34   ar
    26    34    35   ar
    27     5     6    1
    28     6     7    1
    29    11    12   ar
    30    12    13   ar
    31    13     9   ar
    32     7     2    1
    33    23    18   ar
    34    35    29   ar
    35     8    14    1
    36     8    15    1
    37    26    27    1
    38    13    16    1
@<TRIPOS>MOLECULE
*****
 35 38 0 0 0
SMALL
GASTEIGER

@<TRIPOS>ATOM
      1 N         138.4535  140.9340  162.8743 N.3     1  UNL1       -0.2689
      2 N         139.6157  140.4426  167.1938 N.pl3   1  UNL1       -0.2769
      3 C         140.1636  141.5882  166.3954 C.3     1  UNL1        0.0950
      4 C         139.7762  141.7520  164.9556 C.3     1  UNL1        0.0375
      5 C         138.8409  140.7702  164.3142 C.3     1  UNL1        0.0613
      6 C         138.2931  139.6246  165.1126 C.3     1  UNL1        0.0375
      7 C         138.6805  139.4608  166.5524 C.3     1  UNL1        0.0950
      8 N         142.4054  140.4603  171.6769 N.pl3   1  UNL1       -0.3278
      9 C         141.2854  140.2869  170.6943 C.ar    1  UNL1        0.2099
     10 N         141.3410  140.6036  169.2292 N.ar    1  UNL1       -0.1804
     11 C         140.0031  140.2788  168.6337 C.ar    1  UNL1        0.2395
     12 N         139.1207  139.7614  169.7307 N.ar    1  UNL1       -0.1349
     13 N         139.9131  139.7664  171.0043 N.ar    1  UNL1       -0.2453
     14 H         143.2745  140.8113  171.3758 H       1  UNL1        0.1451
     15 H         142.2714  140.2231  172.6230 H       1  UNL1        0.1451
     16 H         139.5895  139.4786  171.8884 H       1  UNL1        0.1919
     17 C         137.7929  142.1998  162.4148 C.3     1  UNL1        0.0991
     18 C         138.6264  143.3407  161.9110 C.ar    1  UNL1       -0.0061
     19 C         139.3113  143.2390  160.5804 C.ar    1  UNL1       -0.0029
     20 C         140.1447  144.3798  160.0768 C.ar    1  UNL1       -0.0003
     21 C         140.2932  145.6225  160.9036 C.ar    1  UNL1       -0.0000
     22 C         139.6083  145.7243  162.2342 C.ar    1  UNL1       -0.0003
     23 C         138.7749  144.5834  162.7379 C.ar    1  UNL1       -0.0029
     24 C         138.7269  139.8320  161.8941 C.3     1  UNL1        0.0916
     25 C         137.6873  138.7814  161.6377 C.3     1  UNL1        0.1533
     26 O         137.9418  137.3599  162.0433 O.3     1  UNL1       -0.3805
     27 H         138.6712  136.9987  161.5157 H       1  UNL1        0.2105
     28 C         140.0396  139.7806  161.1702 C.3     1  UNL1        0.0448
     29 C         141.3243  139.8659  161.9399 C.ar    1  UNL1       -0.0207
     30 C         141.8487  138.6590  162.6600 C.ar    1  UNL1       -0.0034
     31 C         143.1334  138.7443  163.4296 C.ar    1  UNL1        0.0111
     32 C         143.8937  140.0365  163.4791 C.ar    1  UNL1        0.0577
     33 CL        145.1783  140.1217  164.2487 Cl      1  UNL1       -0.0822
     34 C         143.3692  141.2433  162.7591 C.ar    1  UNL1        0.0111
     35 C         142.0845  141.1580  161.9894 C.ar    1  UNL1       -0.0034
@<TRIPOS>BOND
     1     8     9    1
     2     9    10   ar
     3    10    11   ar
     4    11     2    1
     5     2     3    1
     6     3     4    1
     7     4     5    1
     8     5     1    1
     9     1    17    1
    10    17    18    1
    11    18    19   ar
    12    19    20   ar
    13    20    21   ar
    14    21    22   ar
    15    22    23   ar
    16     1    24    1
    17    24    25    1
    18    25    26    1
    19    24    28    1
    20    28    29    1
    21    29    30   ar
    22    30    31   ar
    23    31    32   ar
    24    32    33    1
    25    32    34   ar
    26    34    35   ar
    27     5     6    1
    28     6     7    1
    29    11    12   ar
    30    12    13   ar
    31    13     9   ar
    32     7     2    1
    33    23    18   ar
    34    35    29   ar
    35     8    14    1
    36     8    15    1
    37    26    27    1
    38    13    16    1
@<TRIPOS>MOLECULE
*****
 35 38 0 0 0
SMALL
GASTEIGER

@<TRIPOS>ATOM
      1 N         141.5061  143.2878  163.1842 N.3     1  UNL1       -0.2689
      2 N         143.8067  141.9574  159.5528 N.pl3   1  UNL1       -0.2769
      3 C         142.7902  143.0543  159.4363 C.3     1  UNL1        0.0950
      4 C         142.0234  143.4978  160.6468 C.3     1  UNL1        0.0375
      5 C         142.2730  142.8443  161.9737 C.3     1  UNL1        0.0613
      6 C         143.2894  141.7474  162.0901 C.3     1  UNL1        0.0375
      7 C         144.0563  141.3040  160.8797 C.3     1  UNL1        0.0950
      8 N         147.0650  141.9475  155.3977 N.pl3   1  UNL1       -0.3278
      9 C         146.0713  141.5094  156.4324 C.ar    1  UNL1        0.2099
     10 N         145.5382  142.3500  157.5545 N.ar    1  UNL1       -0.1804
     11 C         144.5736  141.5139  158.3423 C.ar    1  UNL1        0.2395
     12 N         144.5105  140.1566  157.7070 N.ar    1  UNL1       -0.1349
     13 N         145.4361  140.1537  156.5267 N.ar    1  UNL1       -0.2453
     14 H         147.4269  142.8628  155.4192 H       1  UNL1        0.1451
     15 H         147.3553  141.3197  154.6971 H       1  UNL1        0.1451
     16 H         145.5983  139.3953  155.9203 H       1  UNL1        0.1919
     17 C         142.1584  143.2663  164.5347 C.3     1  UNL1        0.0991
     18 C         141.7414  142.2468  165.5530 C.ar    1  UNL1       -0.0061
     19 C         142.2428  140.8367  165.4514 C.ar    1  UNL1       -0.0029
     20 C         141.8258  139.8173  166.4696 C.ar    1  UNL1       -0.0003
     21 C         140.9073  140.2079  167.5894 C.ar    1  UNL1       -0.0000
     22 C         140.4059  141.6179  167.6909 C.ar    1  UNL1       -0.0003
     23 C         140.8229  142.6373  166.6727 C.ar    1  UNL1       -0.0029
     24 C         140.0869  143.7527  163.0441 C.3     1  UNL1        0.0916
     25 C         139.7450  145.1961  163.2676 C.3     1  UNL1        0.1533
     26 O         140.6571  146.2710  162.7551 O.3     1  UNL1       -0.3805
     27 H         141.5032  146.2295  163.2277 H       1  UNL1        0.2105
     28 C         139.0096  142.7744  162.6805 C.3     1  UNL1        0.0448
     29 C         138.9615  141.4304  163.3448 C.ar    1  UNL1       -0.0207
     30 C         139.6916  140.2681  162.7397 C.ar    1  UNL1       -0.0034
     31 C         139.6436  138.9242  163.4041 C.ar    1  UNL1        0.0111
     32 C         138.8655  138.7425  164.6736 C.ar    1  UNL1        0.0577
     33 CL        138.8175  137.3985  165.3379 Cl      1  UNL1       -0.0822
     34 C         138.1354  139.9047  165.2787 C.ar    1  UNL1        0.0111
     35 C         138.1835  141.2487  164.6143 C.ar    1  UNL1       -0.0034
@<TRIPOS>BOND
     1     8     9    1
     2     9    10   ar
     3    10    11   ar
     4    11     2    1
     5     2     3    1
     6     3     4    1
     7     4     5    1
     8     5     1    1
     9     1    17    1
    10    17    18    1
    11    18    19   ar
    12    19    20   ar
    13    20    21   ar
    14    21    22   ar
    15    22    23   ar
    16     1    24    1
    17    24    25    1
    18    25    26    1
    19    24    28    1
    20    28    29    1
    21    29    30   ar
    22    30    31   ar
    23    31    32   ar
    24    32    33    1
    25    32    34   ar
    26    34    35   ar
    27     5     6    1
    28     6     7    1
    29    11    12   ar
    30    12    13   ar
    31    13     9   ar
    32     7     2    1
    33    23    18   ar
    34    35    29   ar
    35     8    14    1
    36     8    15    1
    37    26    27    1
    38    13    16    1
@<TRIPOS>MOLECULE
*****
 35 38 0 0 0
SMALL
GASTEIGER

@<TRIPOS>ATOM
      1 N         139.6800  142.1434  162.6139 N.3     1  UNL1       -0.2689
      2 N         142.9200  141.6686  159.5274 N.pl3   1  UNL1       -0.2769
      3 C         142.8847  140.7634  160.7229 C.3     1  UNL1        0.0950
      4 C         141.8047  140.9218  161.7518 C.3     1  UNL1        0.0375
      5 C         140.7600  141.9852  161.5850 C.3     1  UNL1        0.0613
      6 C         140.7953  142.8903  160.3894 C.3     1  UNL1        0.0375
      7 C         141.8753  142.7320  159.3606 C.3     1  UNL1        0.0950
      8 N         146.8668  142.7332  156.1852 N.pl3   1  UNL1       -0.3278
      9 C         145.8142  141.9997  156.9622 C.ar    1  UNL1        0.2099
     10 N         144.8811  142.6031  157.9698 N.ar    1  UNL1       -0.1804
     11 C         144.0000  141.5103  158.4984 C.ar    1  UNL1        0.2395
     12 N         144.3885  140.2315  157.8176 N.ar    1  UNL1       -0.1349
     13 N         145.5097  140.5339  156.8681 N.ar    1  UNL1       -0.2453
     14 H         146.9914  143.7009  156.3172 H       1  UNL1        0.1451
     15 H         147.4331  142.2471  155.5432 H       1  UNL1        0.1451
     16 H         145.9657  139.8844  156.2855 H       1  UNL1        0.1919
     17 C         138.5733  141.1347  162.7008 C.3     1  UNL1        0.0991
     18 C         138.6041  140.0771  163.7641 C.ar    1  UNL1       -0.0061
     19 C         138.0298  140.3603  165.1205 C.ar    1  UNL1       -0.0029
     20 C         138.0607  139.3027  166.1837 C.ar    1  UNL1       -0.0003
     21 C         138.6659  137.9619  165.8906 C.ar    1  UNL1       -0.0000
     22 C         139.2403  137.6787  164.5342 C.ar    1  UNL1       -0.0003
     23 C         139.2094  138.7363  163.4710 C.ar    1  UNL1       -0.0029
     24 C         139.7068  143.3105  163.5559 C.3     1  UNL1        0.0916
     25 C         138.6161  144.3392  163.5067 C.3     1  UNL1        0.1533
     26 O         137.6589  144.3627  162.3521 O.3     1  UNL1       -0.3805
     27 H         138.1370  144.5941  161.5404 H       1  UNL1        0.2105
     28 C         140.8241  143.4488  164.5470 C.3     1  UNL1        0.0448
     29 C         140.9349  142.4857  165.6917 C.ar    1  UNL1       -0.0207
     30 C         140.3182  142.8220  167.0171 C.ar    1  UNL1       -0.0034
     31 C         140.4289  141.8589  168.1618 C.ar    1  UNL1        0.0111
     32 C         141.1563  140.5596  167.9810 C.ar    1  UNL1        0.0577
     33 CL        141.2671  139.5965  169.1256 Cl      1  UNL1       -0.0822
     34 C         141.7730  140.2233  166.6556 C.ar    1  UNL1        0.0111
     35 C         141.6622  141.1864  165.5109 C.ar    1  UNL1       -0.0034
@<TRIPOS>BOND
     1     8     9    1
     2     9    10   ar
     3    10    11   ar
     4    11     2    1
     5     2     3    1
     6     3     4    1
     7     4     5    1
     8     5     1    1
     9     1    17    1
    10    17    18    1
    11    18    19   ar
    12    19    20   ar
    13    20    21   ar
    14    21    22   ar
    15    22    23   ar
    16     1    24    1
    17    24    25    1
    18    25    26    1
    19    24    28    1
    20    28    29    1
    21    29    30   ar
    22    30    31   ar
    23    31    32   ar
    24    32    33    1
    25    32    34   ar
    26    34    35   ar
    27     5     6    1
    28     6     7    1
    29    11    12   ar
    30    12    13   ar
    31    13     9   ar
    32     7     2    1
    33    23    18   ar
    34    35    29   ar
    35     8    14    1
    36     8    15    1
    37    26    27    1
    38    13    16    1
@<TRIPOS>MOLECULE
*****
 35 38 0 0 0
SMALL
GASTEIGER

@<TRIPOS>ATOM
      1 N         143.5907  139.8788  164.3247 N.3     1  UNL1       -0.2689
      2 N         142.1440  138.6988  160.2303 N.pl3   1  UNL1       -0.2769
      3 C         141.4559  139.8007  160.9801 C.3     1  UNL1        0.0950
      4 C         141.9381  140.1940  162.3449 C.3     1  UNL1        0.0375
      5 C         143.1085  139.4854  162.9598 C.3     1  UNL1        0.0613
      6 C         143.7966  138.3835  162.2100 C.3     1  UNL1        0.0375
      7 C         143.3143  137.9902  160.8452 C.3     1  UNL1        0.0950
      8 N         139.0153  137.2123  156.2449 N.pl3   1  UNL1       -0.3278
      9 C         140.2236  137.6221  157.0336 C.ar    1  UNL1        0.2099
     10 N         140.2521  137.9481  158.4974 N.ar    1  UNL1       -0.1804
     11 C         141.6617  138.3054  158.8654 C.ar    1  UNL1        0.2395
     12 N         142.5044  138.2003  157.6289 N.ar    1  UNL1       -0.1349
     13 N         141.6156  137.7780  156.4968 N.ar    1  UNL1       -0.2453
     14 H         138.1398  137.1375  156.6889 H       1  UNL1        0.1451
     15 H         139.0977  137.0180  155.2833 H       1  UNL1        0.1451
     16 H         141.8966  137.6293  155.5650 H       1  UNL1        0.1919
     17 C         143.2645  139.0213  165.5114 C.3     1  UNL1        0.0991
     18 C         142.0635  139.3327  166.3543 C.ar    1  UNL1       -0.0061
     19 C         142.2364  139.7122  167.7952 C.ar    1  UNL1       -0.0029
     20 C         141.0354  140.0236  168.6381 C.ar    1  UNL1       -0.0003
     21 C         139.6614  139.9556  168.0401 C.ar    1  UNL1       -0.0000
     22 C         139.4885  139.5761  166.5993 C.ar    1  UNL1       -0.0003
     23 C         140.6895  139.2647  165.7564 C.ar    1  UNL1       -0.0029
     24 C         144.3991  141.1297  164.5028 C.3     1  UNL1        0.0916
     25 C         145.7293  141.2662  163.8230 C.3     1  UNL1        0.1533
     26 O         145.8545  142.0956  162.5795 O.3     1  UNL1       -0.3805
     27 H         145.3476  141.6825  161.8630 H       1  UNL1        0.2105
     28 C         143.8774  142.2441  165.3606 C.3     1  UNL1        0.0448
     29 C         142.5547  142.8772  165.0451 C.ar    1  UNL1       -0.0207
     30 C         142.3680  143.6217  163.7562 C.ar    1  UNL1       -0.0034
     31 C         141.0453  144.2549  163.4407 C.ar    1  UNL1        0.0111
     32 C         139.9093  144.1436  164.4140 C.ar    1  UNL1        0.0577
     33 CL        138.5866  144.7767  164.0985 Cl      1  UNL1       -0.0822
     34 C         140.0960  143.3991  165.7027 C.ar    1  UNL1        0.0111
     35 C         141.4187  142.7660  166.0183 C.ar    1  UNL1       -0.0034
@<TRIPOS>BOND
     1     8     9    1
     2     9    10   ar
     3    10    11   ar
     4    11     2    1
     5     2     3    1
     6     3     4    1
     7     4     5    1
     8     5     1    1
     9     1    17    1
    10    17    18    1
    11    18    19   ar
    12    19    20   ar
    13    20    21   ar
    14    21    22   ar
    15    22    23   ar
    16     1    24    1
    17    24    25    1
    18    25    26    1
    19    24    28    1
    20    28    29    1
    21    29    30   ar
    22    30    31   ar
    23    31    32   ar
    24    32    33    1
    25    32    34   ar
    26    34    35   ar
    27     5     6    1
    28     6     7    1
    29    11    12   ar
    30    12    13   ar
    31    13     9   ar
    32     7     2    1
    33    23    18   ar
    34    35    29   ar
    35     8    14    1
    36     8    15    1
    37    26    27    1
    38    13    16    1
@<TRIPOS>MOLECULE
*****
 35 38 0 0 0
SMALL
GASTEIGER

@<TRIPOS>ATOM
      1 N         140.0615  140.2309  161.2743 N.3     1  UNL1       -0.2689
      2 N         142.2585  137.6902  158.2797 N.pl3   1  UNL1       -0.2769
      3 C         142.9249  138.0783  159.5662 C.3     1  UNL1        0.0950
      4 C         142.1926  138.9252  160.5644 C.3     1  UNL1        0.0375
      5 C         140.7938  139.3840  160.2760 C.3     1  UNL1        0.0613
      6 C         140.1275  138.9959  158.9895 C.3     1  UNL1        0.0375
      7 C         140.8598  138.1490  157.9913 C.3     1  UNL1        0.0950
      8 N         144.1742  133.5081  155.6871 N.pl3   1  UNL1       -0.3278
      9 C         143.8714  134.9210  156.0898 C.ar    1  UNL1        0.2099
     10 N         143.0227  135.3439  157.2520 N.ar    1  UNL1       -0.1804
     11 C         142.9909  136.8433  157.2814 C.ar    1  UNL1        0.2395
     12 N         143.8199  137.3470  156.1374 N.ar    1  UNL1       -0.1349
     13 N         144.3641  136.1590  155.4009 N.ar    1  UNL1       -0.2453
     14 H         143.8024  132.7581  156.2053 H       1  UNL1        0.1451
     15 H         144.7449  133.3308  154.9047 H       1  UNL1        0.1451
     16 H         144.9431  136.1869  154.6051 H       1  UNL1        0.1919
     17 C         140.5020  141.6423  161.5270 C.3     1  UNL1        0.0991
     18 C         141.1044  142.0147  162.8493 C.ar    1  UNL1       -0.0061
     19 C         140.2868  142.7589  163.8630 C.ar    1  UNL1       -0.0029
     20 C         140.8893  143.1312  165.1853 C.ar    1  UNL1       -0.0003
     21 C         142.3094  142.7593  165.4938 C.ar    1  UNL1       -0.0000
     22 C         143.1269  142.0151  164.4800 C.ar    1  UNL1       -0.0003
     23 C         142.5245  141.6428  163.1578 C.ar    1  UNL1       -0.0029
     24 C         138.8887  139.6663  162.0199 C.3     1  UNL1        0.0916
     25 C         137.5119  140.2086  161.7737 C.3     1  UNL1        0.1533
     26 O         136.8399  141.0507  162.8174 O.3     1  UNL1       -0.3805
     27 H         136.6636  140.5110  163.6039 H       1  UNL1        0.2105
     28 C         139.0926  138.5596  163.0115 C.3     1  UNL1        0.0448
     29 C         140.0101  138.7602  164.1812 C.ar    1  UNL1       -0.0207
     30 C         139.5350  139.5174  165.3858 C.ar    1  UNL1       -0.0034
     31 C         140.4524  139.7179  166.5555 C.ar    1  UNL1        0.0111
     32 C         141.8449  139.1613  166.5205 C.ar    1  UNL1        0.0577
     33 CL        142.7623  139.3619  167.6902 Cl      1  UNL1       -0.0822
     34 C         142.3199  138.4042  165.3159 C.ar    1  UNL1        0.0111
     35 C         141.4025  138.2036  164.1463 C.ar    1  UNL1       -0.0034
@<TRIPOS>BOND
     1     8     9    1
     2     9    10   ar
     3    10    11   ar
     4    11     2    1
     5     2     3    1
     6     3     4    1
     7     4     5    1
     8     5     1    1
     9     1    17    1
    10    17    18    1
    11    18    19   ar
    12    19    20   ar
    13    20    21   ar
    14    21    22   ar
    15    22    23   ar
    16     1    24    1
    17    24    25    1
    18    25    26    1
    19    24    28    1
    20    28    29    1
    21    29    30   ar
    22    30    31   ar
    23    31    32   ar
    24    32    33    1
    25    32    34   ar
    26    34    35   ar
    27     5     6    1
    28     6     7    1
    29    11    12   ar
    30    12    13   ar
    31    13     9   ar
    32     7     2    1
    33    23    18   ar
    34    35    29   ar
    35     8    14    1
    36     8    15    1
    37    26    27    1
    38    13    16    1
@<TRIPOS>MOLECULE
*****
 35 38 0 0 0
SMALL
GASTEIGER

@<TRIPOS>ATOM
      1 N         138.7660  140.1023  163.3738 N.3     1  UNL1       -0.2689
      2 N         140.2746  143.1881  160.4665 N.pl3   1  UNL1       -0.2769
      3 C         138.8485  142.7282  160.3992 C.3     1  UNL1        0.0950
      4 C         138.3457  141.6996  161.3683 C.3     1  UNL1        0.0375
      5 C         139.2690  141.1309  162.4047 C.3     1  UNL1        0.0613
      6 C         140.6951  141.5908  162.4720 C.3     1  UNL1        0.0375
      7 C         141.1979  142.6194  161.5029 C.3     1  UNL1        0.0950
      8 N         140.4722  146.7299  156.5553 N.pl3   1  UNL1       -0.3278
      9 C         140.8683  145.8447  157.6996 C.ar    1  UNL1        0.2099
     10 N         139.9680  144.8944  158.4319 N.ar    1  UNL1       -0.1804
     11 C         140.7775  144.2167  159.4974 C.ar    1  UNL1        0.2395
     12 N         142.1783  144.7482  159.4237 N.ar    1  UNL1       -0.1349
     13 N         142.2344  145.7544  158.3126 N.ar    1  UNL1       -0.2453
     14 H         139.5460  146.7183  156.2217 H       1  UNL1        0.1451
     15 H         141.1384  147.3225  156.1379 H       1  UNL1        0.1451
     16 H         143.0284  146.2657  158.0346 H       1  UNL1        0.1919
     17 C         138.1106  140.5335  164.6522 C.3     1  UNL1        0.0991
     18 C         138.9360  140.7289  165.8895 C.ar    1  UNL1       -0.0061
     19 C         139.8402  141.9199  166.0075 C.ar    1  UNL1       -0.0029
     20 C         140.6655  142.1152  167.2447 C.ar    1  UNL1       -0.0003
     21 C         140.5867  141.1195  168.3638 C.ar    1  UNL1       -0.0000
     22 C         139.6825  139.9286  168.2458 C.ar    1  UNL1       -0.0003
     23 C         138.8572  139.7332  167.0086 C.ar    1  UNL1       -0.0029
     24 C         138.9186  138.6425  163.0644 C.3     1  UNL1        0.0916
     25 C         138.1207  138.0236  161.9551 C.3     1  UNL1        0.1533
     26 O         138.7790  137.7039  160.6458 O.3     1  UNL1       -0.3805
     27 H         139.0504  138.5272  160.2107 H       1  UNL1        0.2105
     28 C         139.8689  137.8016  163.8641 C.3     1  UNL1        0.0448
     29 C         141.2947  138.2359  164.0332 C.ar    1  UNL1       -0.0207
     30 C         141.8122  138.5978  165.3938 C.ar    1  UNL1       -0.0034
     31 C         143.2380  139.0320  165.5628 C.ar    1  UNL1        0.0111
     32 C         144.1463  139.1045  164.3712 C.ar    1  UNL1        0.0577
     33 CL        145.5720  139.5388  164.5402 Cl      1  UNL1       -0.0822
     34 C         143.6287  138.7427  163.0106 C.ar    1  UNL1        0.0111
     35 C         142.2029  138.3084  162.8416 C.ar    1  UNL1       -0.0034
@<TRIPOS>BOND
     1     8     9    1
     2     9    10   ar
     3    10    11   ar
     4    11     2    1
     5     2     3    1
     6     3     4    1
     7     4     5    1
     8     5     1    1
     9     1    17    1
    10    17    18    1
    11    18    19   ar
    12    19    20   ar
    13    20    21   ar
    14    21    22   ar
    15    22    23   ar
    16     1    24    1
    17    24    25    1
    18    25    26    1
    19    24    28    1
    20    28    29    1
    21    29    30   ar
    22    30    31   ar
    23    31    32   ar
    24    32    33    1
    25    32    34   ar
    26    34    35   ar
    27     5     6    1
    28     6     7    1
    29    11    12   ar
    30    12    13   ar
    31    13     9   ar
    32     7     2    1
    33    23    18   ar
    34    35    29   ar
    35     8    14    1
    36     8    15    1
    37    26    27    1
    38    13    16    1
@<TRIPOS>MOLECULE
*****
 35 38 0 0 0
SMALL
GASTEIGER

@<TRIPOS>ATOM
      1 N         143.0314  142.7607  162.5157 N.3     1  UNL1       -0.2689
      2 N         141.5053  144.8725  158.8467 N.pl3   1  UNL1       -0.2769
      3 C         140.9104  145.1774  160.1895 C.3     1  UNL1        0.0950
      4 C         141.4191  144.4735  161.4125 C.3     1  UNL1        0.0375
      5 C         142.5227  143.4647  161.2927 C.3     1  UNL1        0.0613
      6 C         143.1176  143.1597  159.9499 C.3     1  UNL1        0.0375
      7 C         142.6089  143.8636  158.7269 C.3     1  UNL1        0.0950
      8 N         138.5508  147.8230  155.6146 N.pl3   1  UNL1       -0.3278
      9 C         139.6385  146.9326  156.1380 C.ar    1  UNL1        0.2099
     10 N         139.7668  146.4318  157.5461 N.ar    1  UNL1       -0.1804
     11 C         140.9966  145.5764  157.6237 C.ar    1  UNL1        0.2395
     12 N         141.6283  145.5484  156.2635 N.ar    1  UNL1       -0.1349
     13 N         140.7890  146.3866  155.3453 N.ar    1  UNL1       -0.2453
     14 H         137.8347  148.1310  156.2159 H       1  UNL1        0.1451
     15 H         138.5529  148.0993  154.6697 H       1  UNL1        0.1451
     16 H         140.9627  146.5497  154.3901 H       1  UNL1        0.1919
     17 C         143.1550  143.5047  163.8123 C.3     1  UNL1        0.0991
     18 C         142.3375  143.0859  164.9982 C.ar    1  UNL1       -0.0061
     19 C         140.8714  143.3995  165.0470 C.ar    1  UNL1       -0.0029
     20 C         140.0540  142.9807  166.2328 C.ar    1  UNL1       -0.0003
     21 C         140.7025  142.2484  167.3700 C.ar    1  UNL1       -0.0000
     22 C         142.1685  141.9348  167.3212 C.ar    1  UNL1       -0.0003
     23 C         142.9860  142.3536  166.1354 C.ar    1  UNL1       -0.0029
     24 C         143.4164  141.3129  162.4421 C.3     1  UNL1        0.0916
     25 C         144.8498  140.9080  162.6199 C.3     1  UNL1        0.1533
     26 O         145.9396  141.9303  162.4891 O.3     1  UNL1       -0.3805
     27 H         145.9738  142.2512  161.5743 H       1  UNL1        0.2105
     28 C         142.3681  140.2699  162.1907 C.3     1  UNL1        0.0448
     29 C         141.2983  140.0203  163.2121 C.ar    1  UNL1       -0.0207
     30 C         141.6293  139.2956  164.4831 C.ar    1  UNL1       -0.0034
     31 C         140.5595  139.0460  165.5045 C.ar    1  UNL1        0.0111
     32 C         139.1587  139.5211  165.2548 C.ar    1  UNL1        0.0577
     33 CL        138.0889  139.2715  166.2762 Cl      1  UNL1       -0.0822
     34 C         138.8278  140.2457  163.9839 C.ar    1  UNL1        0.0111
     35 C         139.8976  140.4953  162.9625 C.ar    1  UNL1       -0.0034
@<TRIPOS>BOND
     1     8     9    1
     2     9    10   ar
     3    10    11   ar
     4    11     2    1
     5     2     3    1
     6     3     4    1
     7     4     5    1
     8     5     1    1
     9     1    17    1
    10    17    18    1
    11    18    19   ar
    12    19    20   ar
    13    20    21   ar
    14    21    22   ar
    15    22    23   ar
    16     1    24    1
    17    24    25    1
    18    25    26    1
    19    24    28    1
    20    28    29    1
    21    29    30   ar
    22    30    31   ar
    23    31    32   ar
    24    32    33    1
    25    32    34   ar
    26    34    35   ar
    27     5     6    1
    28     6     7    1
    29    11    12   ar
    30    12    13   ar
    31    13     9   ar
    32     7     2    1
    33    23    18   ar
    34    35    29   ar
    35     8    14    1
    36     8    15    1
    37    26    27    1
    38    13    16    1
