@<TRIPOS>MOLECULE
*****
 29 32 0 0 0
SMALL
GASTEIGER

@<TRIPOS>ATOM
      1 N         143.5891  141.7251  164.8397 N.3     1  UNL1       -0.2727
      2 C         144.7606  142.5348  164.3684 C.3     1  UNL1        0.0613
      3 C         145.7814  141.5900  163.8071 C.3     1  UNL1        0.0175
      4 C         145.2408  140.1963  163.9314 C.3     1  UNL1        0.0175
      5 C         143.8859  140.2798  164.5696 C.3     1  UNL1        0.0613
      6 C         142.5754  140.6615  165.2143 C.3     1  UNL1        0.0595
      7 C         142.4190  142.1389  165.4220 C.3     1  UNL1        0.1686
      8 C         143.5116  143.0755  164.9991 C.3     1  UNL1        0.0595
      9 C         142.2318  142.3544  166.9638 C.3     1  UNL1        0.0222
     10 C         142.3401  142.2658  165.4703 C.3     1  UNL1        0.0802
     11 C         141.1995  142.7178  164.6075 C.ar    1  UNL1       -0.0039
     12 C         140.7108  144.1336  164.6913 C.ar    1  UNL1        0.0178
     13 C         139.5701  144.5856  163.8284 C.ar    1  UNL1        0.0996
     14 N         138.9181  143.6220  162.8817 N.ar    1  UNL1       -0.2325
     15 C         139.4067  142.2062  162.7979 C.ar    1  UNL1        0.1381
     16 CL        138.7547  141.2425  161.8513 Cl      1  UNL1       -0.0613
     17 C         140.5474  141.7541  163.6608 C.ar    1  UNL1        0.0278
     18 O         141.1699  142.6795  166.0527 O.3     1  UNL1       -0.4791
     19 C         140.5381  141.9564  167.2051 C.ar    1  UNL1        0.1385
     20 C         139.9135  140.6092  166.9935 C.ar    1  UNL1        0.0369
     21 C         139.2817  139.8861  168.1458 C.ar    1  UNL1        0.0033
     22 C         139.2744  140.5103  169.5097 C.ar    1  UNL1        0.0047
     23 C         139.8990  141.8575  169.7213 C.ar    1  UNL1        0.0561
     24 C         140.5309  142.5806  168.5689 C.ar    1  UNL1        0.0414
     25 C         139.8918  142.4816  171.0852 C.2     1  UNL1        0.2428
     26 N         138.8673  143.5221  171.4285 N.am    1  UNL1       -0.3253
     27 O         140.9091  142.0653  172.1060 O.2     1  UNL1       -0.2704
     28 H         138.1996  143.7954  170.7586 H       1  UNL1        0.1453
     29 H         138.8625  143.9318  172.3237 H       1  UNL1        0.1453
@<TRIPOS>BOND
     1    10     9    1
     2    10    11    1
     3    11    12   ar
     4    12    13   ar
     5    13    14   ar
     6    14    15   ar
     7    15    16    1
     8    15    17   ar
     9    10     1    1
    10     1     2    1
    11     2     3    1
    12     3     4    1
    13     5     4    1
    14     5     6    1
    15     6     7    1
    16     7    18    1
    17    18    19    1
    18    19    20   ar
    19    20    21   ar
    20    21    22   ar
    21    22    23   ar
    22    23    25    1
    23    25    26   am
    24    25    27    2
    25    23    24   ar
    26     7     8    1
    27    17    11   ar
    28     5     1    1
    29    24    19   ar
    30     8     2    1
    31    26    28    1
    32    26    29    1
@<TRIPOS>MOLECULE
*****
 29 32 0 0 0
SMALL
GASTEIGER

@<TRIPOS>ATOM
      1 N         140.0886  139.6145  165.0378 N.3     1  UNL1       -0.2727
      2 C         140.1853  138.8759  163.7358 C.3     1  UNL1        0.0613
      3 C         139.2829  137.6802  163.8129 C.3     1  UNL1        0.0175
      4 C         138.6285  137.6798  165.1626 C.3     1  UNL1        0.0175
      5 C         139.1264  138.8752  165.9196 C.3     1  UNL1        0.0613
      6 C         139.7879  140.1322  166.4309 C.3     1  UNL1        0.0595
      7 C         140.7228  140.7612  165.4407 C.3     1  UNL1        0.1686
      8 C         140.9215  140.1330  164.0931 C.3     1  UNL1        0.0595
      9 C         142.0938  140.7970  166.1913 C.3     1  UNL1        0.0222
     10 C         140.8248  140.8716  165.3951 C.3     1  UNL1        0.0802
     11 C         140.2919  142.2033  164.9563 C.ar    1  UNL1       -0.0039
     12 C         138.8239  142.4944  165.0587 C.ar    1  UNL1        0.0178
     13 C         138.2911  143.8262  164.6198 C.ar    1  UNL1        0.0996
     14 N         139.2261  144.8667  164.0785 N.ar    1  UNL1       -0.2325
     15 C         140.6941  144.5755  163.9761 C.ar    1  UNL1        0.1381
     16 CL        141.6291  145.6161  163.4348 Cl      1  UNL1       -0.0613
     17 C         141.2269  143.2438  164.4150 C.ar    1  UNL1        0.0278
     18 O         141.4590  142.0183  165.7981 O.3     1  UNL1       -0.4791
     19 C         141.7749  142.3203  167.2331 C.ar    1  UNL1        0.1385
     20 C         143.1313  141.9979  167.7864 C.ar    1  UNL1        0.0369
     21 C         143.4471  142.2998  169.2212 C.ar    1  UNL1        0.0033
     22 C         142.4065  142.9242  170.1029 C.ar    1  UNL1        0.0047
     23 C         141.0501  143.2466  169.5496 C.ar    1  UNL1        0.0561
     24 C         140.7343  142.9446  168.1146 C.ar    1  UNL1        0.0414
     25 C         140.0095  143.8710  170.4313 C.2     1  UNL1        0.2428
     26 N         139.1356  143.0048  171.2892 N.am    1  UNL1       -0.3253
     27 O         139.8429  145.3616  170.4551 O.2     1  UNL1       -0.2704
     28 H         139.2449  142.0265  171.2736 H       1  UNL1        0.1453
     29 H         138.4526  143.4146  171.8678 H       1  UNL1        0.1453
@<TRIPOS>BOND
     1    10     9    1
     2    10    11    1
     3    11    12   ar
     4    12    13   ar
     5    13    14   ar
     6    14    15   ar
     7    15    16    1
     8    15    17   ar
     9    10     1    1
    10     1     2    1
    11     2     3    1
    12     3     4    1
    13     5     4    1
    14     5     6    1
    15     6     7    1
    16     7    18    1
    17    18    19    1
    18    19    20   ar
    19    20    21   ar
    20    21    22   ar
    21    22    23   ar
    22    23    25    1
    23    25    26   am
    24    25    27    2
    25    23    24   ar
    26     7     8    1
    27    17    11   ar
    28     5     1    1
    29    24    19   ar
    30     8     2    1
    31    26    28    1
    32    26    29    1
@<TRIPOS>MOLECULE
*****
 29 32 0 0 0
SMALL
GASTEIGER

@<TRIPOS>ATOM
      1 N         140.2454  143.2693  163.8843 N.3     1  UNL1       -0.2727
      2 C         140.6567  143.3562  162.4445 C.3     1  UNL1        0.0613
      3 C         139.8578  144.4496  161.7993 C.3     1  UNL1        0.0175
      4 C         138.9527  145.0384  162.8404 C.3     1  UNL1        0.0175
      5 C         139.1922  144.3090  164.1291 C.3     1  UNL1        0.0613
      6 C         139.6349  143.4179  165.2644 C.3     1  UNL1        0.0595
      7 C         140.6918  142.4287  164.8710 C.3     1  UNL1        0.1686
      8 C         141.2027  142.3979  163.4611 C.3     1  UNL1        0.0595
      9 C         141.9639  142.7051  165.7493 C.3     1  UNL1        0.0222
     10 C         140.7913  142.3110  164.9010 C.3     1  UNL1        0.0802
     11 C         140.1646  140.9586  165.0693 C.ar    1  UNL1       -0.0039
     12 C         138.7414  140.8434  165.5289 C.ar    1  UNL1        0.0178
     13 C         138.1148  139.4910  165.6971 C.ar    1  UNL1        0.0996
     14 N         138.9112  138.2538  165.4058 N.ar    1  UNL1       -0.2325
     15 C         140.3345  138.3690  164.9462 C.ar    1  UNL1        0.1381
     16 CL        141.1310  137.1318  164.6549 Cl      1  UNL1       -0.0613
     17 C         140.9611  139.7214  164.7779 C.ar    1  UNL1        0.0278
     18 O         141.2377  141.4704  165.8878 O.3     1  UNL1       -0.4791
     19 C         141.6462  141.9670  167.2430 C.ar    1  UNL1        0.1385
     20 C         143.0620  141.7971  167.7086 C.ar    1  UNL1        0.0369
     21 C         143.4705  142.2936  169.0637 C.ar    1  UNL1        0.0033
     22 C         142.4633  142.9601  169.9533 C.ar    1  UNL1        0.0047
     23 C         141.0475  143.1299  169.4877 C.ar    1  UNL1        0.0561
     24 C         140.6390  142.6333  168.1325 C.ar    1  UNL1        0.0414
     25 C         140.0403  143.7963  170.3773 C.2     1  UNL1        0.2428
     26 N         139.1521  142.9675  171.2572 N.am    1  UNL1       -0.3253
     27 O         139.9213  145.2916  170.3871 O.2     1  UNL1       -0.2704
     28 H         139.2302  141.9861  171.2508 H       1  UNL1        0.1453
     29 H         138.4910  143.4049  171.8410 H       1  UNL1        0.1453
@<TRIPOS>BOND
     1    10     9    1
     2    10    11    1
     3    11    12   ar
     4    12    13   ar
     5    13    14   ar
     6    14    15   ar
     7    15    16    1
     8    15    17   ar
     9    10     1    1
    10     1     2    1
    11     2     3    1
    12     3     4    1
    13     5     4    1
    14     5     6    1
    15     6     7    1
    16     7    18    1
    17    18    19    1
    18    19    20   ar
    19    20    21   ar
    20    21    22   ar
    21    22    23   ar
    22    23    25    1
    23    25    26   am
    24    25    27    2
    25    23    24   ar
    26     7     8    1
    27    17    11   ar
    28     5     1    1
    29    24    19   ar
    30     8     2    1
    31    26    28    1
    32    26    29    1
@<TRIPOS>MOLECULE
*****
 29 32 0 0 0
SMALL
GASTEIGER

@<TRIPOS>ATOM
      1 N         141.7757  142.3179  167.7710 N.3     1  UNL1       -0.2727
      2 C         143.0890  141.9644  168.4038 C.3     1  UNL1        0.0613
      3 C         143.0611  142.4397  169.8262 C.3     1  UNL1        0.0175
      4 C         141.7306  143.0870  170.0725 C.3     1  UNL1        0.0175
      5 C         140.9361  143.0117  168.8024 C.3     1  UNL1        0.0613
      6 C         140.3815  142.7960  167.4150 C.3     1  UNL1        0.0595
      7 C         141.3323  142.0907  166.4938 C.3     1  UNL1        0.1686
      8 C         142.6860  141.6749  166.9882 C.3     1  UNL1        0.0595
      9 C         141.6199  143.0466  165.2821 C.3     1  UNL1        0.0222
     10 C         141.3727  142.0284  166.3555 C.3     1  UNL1        0.0802
     11 C         140.7227  140.7206  166.0133 C.ar    1  UNL1       -0.0039
     12 C         141.3107  139.8476  164.9445 C.ar    1  UNL1        0.0178
     13 C         140.6606  138.5399  164.6023 C.ar    1  UNL1        0.0996
     14 N         139.4225  138.1050  165.3289 N.ar    1  UNL1       -0.2325
     15 C         138.8344  138.9779  166.3977 C.ar    1  UNL1        0.1381
     16 CL        137.5963  138.5430  167.1243 Cl      1  UNL1       -0.0613
     17 C         139.4845  140.2857  166.7399 C.ar    1  UNL1        0.0278
     18 O         140.9293  141.8012  165.0782 O.3     1  UNL1       -0.4791
     19 C         139.9999  142.7323  164.3576 C.ar    1  UNL1        0.1385
     20 C         138.5337  142.7221  164.6742 C.ar    1  UNL1        0.0369
     21 C         137.6043  143.6532  163.9537 C.ar    1  UNL1        0.0033
     22 C         138.1411  144.5946  162.9166 C.ar    1  UNL1        0.0047
     23 C         139.6073  144.6049  162.6000 C.ar    1  UNL1        0.0561
     24 C         140.5367  143.6737  163.3206 C.ar    1  UNL1        0.0414
     25 C         140.1440  145.5463  161.5629 C.2     1  UNL1        0.2428
     26 N         141.5568  145.4034  161.0796 N.am    1  UNL1       -0.3253
     27 O         139.2679  146.6307  161.0091 O.2     1  UNL1       -0.2704
     28 H         142.1318  144.6917  161.4431 H       1  UNL1        0.1453
     29 H         141.9091  146.0213  160.3989 H       1  UNL1        0.1453
@<TRIPOS>BOND
     1    10     9    1
     2    10    11    1
     3    11    12   ar
     4    12    13   ar
     5    13    14   ar
     6    14    15   ar
     7    15    16    1
     8    15    17   ar
     9    10     1    1
    10     1     2    1
    11     2     3    1
    12     3     4    1
    13     5     4    1
    14     5     6    1
    15     6     7    1
    16     7    18    1
    17    18    19    1
    18    19    20   ar
    19    20    21   ar
    20    21    22   ar
    21    22    23   ar
    22    23    25    1
    23    25    26   am
    24    25    27    2
    25    23    24   ar
    26     7     8    1
    27    17    11   ar
    28     5     1    1
    29    24    19   ar
    30     8     2    1
    31    26    28    1
    32    26    29    1
@<TRIPOS>MOLECULE
*****
 29 32 0 0 0
SMALL
GASTEIGER

@<TRIPOS>ATOM
      1 N         140.5256  141.4854  168.3687 N.3     1  UNL1       -0.2727
      2 C         139.7521  141.0345  169.5721 C.3     1  UNL1        0.0613
      3 C         139.5989  142.2095  170.4918 C.3     1  UNL1        0.0175
      4 C         140.2777  143.3867  169.8567 C.3     1  UNL1        0.0175
      5 C         140.8504  142.9392  168.5445 C.3     1  UNL1        0.0613
      6 C         141.3094  142.2204  167.2988 C.3     1  UNL1        0.0595
      7 C         140.9124  140.7744  167.2622 C.3     1  UNL1        0.1686
      8 C         140.1338  140.1814  168.3988 C.3     1  UNL1        0.0595
      9 C         142.2514  139.9677  167.1569 C.3     1  UNL1        0.0222
     10 C         140.9072  140.6324  167.1954 C.3     1  UNL1        0.0802
     11 C         139.9446  140.4439  166.0605 C.ar    1  UNL1       -0.0039
     12 C         139.6725  139.0681  165.5284 C.ar    1  UNL1        0.0178
     13 C         138.7098  138.8797  164.3935 C.ar    1  UNL1        0.0996
     14 N         138.0194  140.0670  163.7907 N.ar    1  UNL1       -0.2325
     15 C         138.2916  141.4429  164.3228 C.ar    1  UNL1        0.1381
     16 CL        137.6012  142.6303  163.7200 Cl      1  UNL1       -0.0613
     17 C         139.2542  141.6313  165.4577 C.ar    1  UNL1        0.0278
     18 O         141.2941  139.9213  166.0888 O.3     1  UNL1       -0.4791
     19 C         142.5887  140.1674  165.3722 C.ar    1  UNL1        0.1385
     20 C         143.6164  139.0783  165.2849 C.ar    1  UNL1        0.0369
     21 C         144.9109  139.3244  164.5683 C.ar    1  UNL1        0.0033
     22 C         145.1778  140.6595  163.9390 C.ar    1  UNL1        0.0047
     23 C         144.1500  141.7486  164.0263 C.ar    1  UNL1        0.0561
     24 C         142.8555  141.5026  164.7429 C.ar    1  UNL1        0.0414
     25 C         144.4169  143.0838  163.3970 C.2     1  UNL1        0.2428
     26 N         145.0346  143.1597  162.0321 N.am    1  UNL1       -0.3253
     27 O         144.0662  144.3432  164.1325 O.2     1  UNL1       -0.2704
     28 H         145.2648  142.3331  161.5494 H       1  UNL1        0.1453
     29 H         145.2097  144.0360  161.6191 H       1  UNL1        0.1453
@<TRIPOS>BOND
     1    10     9    1
     2    10    11    1
     3    11    12   ar
     4    12    13   ar
     5    13    14   ar
     6    14    15   ar
     7    15    16    1
     8    15    17   ar
     9    10     1    1
    10     1     2    1
    11     2     3    1
    12     3     4    1
    13     5     4    1
    14     5     6    1
    15     6     7    1
    16     7    18    1
    17    18    19    1
    18    19    20   ar
    19    20    21   ar
    20    21    22   ar
    21    22    23   ar
    22    23    25    1
    23    25    26   am
    24    25    27    2
    25    23    24   ar
    26     7     8    1
    27    17    11   ar
    28     5     1    1
    29    24    19   ar
    30     8     2    1
    31    26    28    1
    32    26    29    1
@<TRIPOS>MOLECULE
*****
 29 32 0 0 0
SMALL
GASTEIGER

@<TRIPOS>ATOM
      1 N         140.9282  139.4396  164.5854 N.3     1  UNL1       -0.2727
      2 C         140.1277  139.0028  163.3944 C.3     1  UNL1        0.0613
      3 C         140.2748  137.5164  163.2568 C.3     1  UNL1        0.0175
      4 C         141.1661  137.0345  164.3628 C.3     1  UNL1        0.0175
      5 C         141.5699  138.2231  165.1840 C.3     1  UNL1        0.0613
      6 C         141.8065  139.5744  165.8140 C.3     1  UNL1        0.0595
      7 C         141.1021  140.6950  165.1082 C.3     1  UNL1        0.1686
      8 C         140.2627  140.4092  163.8983 C.3     1  UNL1        0.0595
      9 C         140.1879  141.3292  166.2077 C.3     1  UNL1        0.0222
     10 C         141.0631  140.8459  165.0894 C.3     1  UNL1        0.0802
     11 C         142.0733  141.7690  164.4750 C.ar    1  UNL1       -0.0039
     12 C         141.6788  143.1647  164.0921 C.ar    1  UNL1        0.0178
     13 C         142.6890  144.0878  163.4777 C.ar    1  UNL1        0.0996
     14 N         144.0937  143.6153  163.2463 N.ar    1  UNL1       -0.2325
     15 C         144.4882  142.2196  163.6293 C.ar    1  UNL1        0.1381
     16 CL        145.8929  141.7472  163.3979 Cl      1  UNL1       -0.0613
     17 C         143.4780  141.2965  164.2436 C.ar    1  UNL1        0.0278
     18 O         141.2371  142.1014  165.6122 O.3     1  UNL1       -0.4791
     19 C         141.6401  142.3527  167.0350 C.ar    1  UNL1        0.1385
     20 C         143.0260  142.0084  167.4940 C.ar    1  UNL1        0.0369
     21 C         143.4290  142.2597  168.9167 C.ar    1  UNL1        0.0033
     22 C         142.4461  142.8553  169.8806 C.ar    1  UNL1        0.0047
     23 C         141.0602  143.1996  169.4217 C.ar    1  UNL1        0.0561
     24 C         140.6572  142.9483  167.9988 C.ar    1  UNL1        0.0414
     25 C         140.0773  143.7952  170.3856 C.2     1  UNL1        0.2428
     26 N         139.3047  142.9061  171.3143 N.am    1  UNL1       -0.3253
     27 O         139.8669  145.2800  170.4207 O.2     1  UNL1       -0.2704
     28 H         139.4427  141.9316  171.2913 H       1  UNL1        0.1453
     29 H         138.6595  143.2970  171.9470 H       1  UNL1        0.1453
@<TRIPOS>BOND
     1    10     9    1
     2    10    11    1
     3    11    12   ar
     4    12    13   ar
     5    13    14   ar
     6    14    15   ar
     7    15    16    1
     8    15    17   ar
     9    10     1    1
    10     1     2    1
    11     2     3    1
    12     3     4    1
    13     5     4    1
    14     5     6    1
    15     6     7    1
    16     7    18    1
    17    18    19    1
    18    19    20   ar
    19    20    21   ar
    20    21    22   ar
    21    22    23   ar
    22    23    25    1
    23    25    26   am
    24    25    27    2
    25    23    24   ar
    26     7     8    1
    27    17    11   ar
    28     5     1    1
    29    24    19   ar
    30     8     2    1
    31    26    28    1
    32    26    29    1
@<TRIPOS>MOLECULE
*****
 29 32 0 0 0
SMALL
GASTEIGER

@<TRIPOS>ATOM
      1 N         139.6722  139.5902  163.9401 N.3     1  UNL1       -0.2727
      2 C         138.5163  138.9084  163.2700 C.3     1  UNL1        0.0613
      3 C         139.0678  137.8864  162.3206 C.3     1  UNL1        0.0175
      4 C         140.5647  137.9366  162.4039 C.3     1  UNL1        0.0175
      5 C         140.9382  138.9896  163.4048 C.3     1  UNL1        0.0613
      6 C         141.0153  140.0861  164.4396 C.3     1  UNL1        0.0595
      7 C         139.6721  140.5881  164.8801 C.3     1  UNL1        0.1686
      8 C         138.4226  139.9992  164.2953 C.3     1  UNL1        0.0595
      9 C         139.5738  140.3391  166.4259 C.3     1  UNL1        0.0222
     10 C         139.5786  140.6810  164.9654 C.3     1  UNL1        0.0802
     11 C         139.4898  142.1137  164.5302 C.ar    1  UNL1       -0.0039
     12 C         138.2492  142.9081  164.8133 C.ar    1  UNL1        0.0178
     13 C         138.1604  144.3408  164.3781 C.ar    1  UNL1        0.0996
     14 N         139.3121  144.9792  163.6598 N.ar    1  UNL1       -0.2325
     15 C         140.5526  144.1848  163.3767 C.ar    1  UNL1        0.1381
     16 CL        141.7043  144.8233  162.6583 Cl      1  UNL1       -0.0613
     17 C         140.6415  142.7521  163.8118 C.ar    1  UNL1        0.0278
     18 O         139.5785  141.6789  165.9055 O.3     1  UNL1       -0.4791
     19 C         140.5389  141.7100  167.0573 C.ar    1  UNL1        0.1385
     20 C         141.9689  142.1025  166.8312 C.ar    1  UNL1        0.0369
     21 C         142.9292  142.1335  167.9829 C.ar    1  UNL1        0.0033
     22 C         142.4597  141.7720  169.3609 C.ar    1  UNL1        0.0047
     23 C         141.0298  141.3795  169.5871 C.ar    1  UNL1        0.0561
     24 C         140.0694  141.3485  168.4352 C.ar    1  UNL1        0.0414
     25 C         140.5602  141.0180  170.9650 C.2     1  UNL1        0.2428
     26 N         140.0269  139.6430  171.2390 N.am    1  UNL1       -0.3253
     27 O         140.6240  142.0315  172.0691 O.2     1  UNL1       -0.2704
     28 H         139.9850  138.9778  170.5145 H       1  UNL1        0.1453
     29 H         139.7187  139.4058  172.1435 H       1  UNL1        0.1453
@<TRIPOS>BOND
     1    10     9    1
     2    10    11    1
     3    11    12   ar
     4    12    13   ar
     5    13    14   ar
     6    14    15   ar
     7    15    16    1
     8    15    17   ar
     9    10     1    1
    10     1     2    1
    11     2     3    1
    12     3     4    1
    13     5     4    1
    14     5     6    1
    15     6     7    1
    16     7    18    1
    17    18    19    1
    18    19    20   ar
    19    20    21   ar
    20    21    22   ar
    21    22    23   ar
    22    23    25    1
    23    25    26   am
    24    25    27    2
    25    23    24   ar
    26     7     8    1
    27    17    11   ar
    28     5     1    1
    29    24    19   ar
    30     8     2    1
    31    26    28    1
    32    26    29    1
@<TRIPOS>MOLECULE
*****
 29 32 0 0 0
SMALL
GASTEIGER

@<TRIPOS>ATOM
      1 N         139.0688  142.2664  163.8238 N.3     1  UNL1       -0.2727
      2 C         138.7189  141.8068  162.4395 C.3     1  UNL1        0.0613
      3 C         137.9810  142.9187  161.7545 C.3     1  UNL1        0.0175
      4 C         137.8748  144.0655  162.7156 C.3     1  UNL1        0.0175
      5 C         138.5471  143.6623  163.9945 C.3     1  UNL1        0.0613
      6 C         139.2763  142.9966  165.1364 C.3     1  UNL1        0.0595
      7 C         139.7390  141.6051  164.8203 C.3     1  UNL1        0.1686
      8 C         139.4603  141.0103  163.4719 C.3     1  UNL1        0.0595
      9 C         139.0517  140.6858  165.8858 C.3     1  UNL1        0.0222
     10 C         139.8102  141.4698  164.8562 C.3     1  UNL1        0.0802
     11 C         141.3101  141.4573  164.8590 C.ar    1  UNL1       -0.0039
     12 C         142.0494  140.1543  164.7824 C.ar    1  UNL1        0.0178
     13 C         143.5494  140.1418  164.7852 C.ar    1  UNL1        0.0996
     14 N         144.3101  141.4321  164.8646 N.ar    1  UNL1       -0.2325
     15 C         143.5707  142.7351  164.9411 C.ar    1  UNL1        0.1381
     16 CL        144.3315  144.0254  165.0204 Cl      1  UNL1       -0.0613
     17 C         142.0708  142.7476  164.9383 C.ar    1  UNL1        0.0278
     18 O         140.4805  140.8086  165.8528 O.3     1  UNL1       -0.4791
     19 C         140.2170  141.0412  167.3111 C.ar    1  UNL1        0.1385
     20 C         139.4315  140.0366  168.1008 C.ar    1  UNL1        0.0369
     21 C         139.1680  140.2692  169.5590 C.ar    1  UNL1        0.0033
     22 C         139.6901  141.5063  170.2275 C.ar    1  UNL1        0.0047
     23 C         140.4756  142.5109  169.4377 C.ar    1  UNL1        0.0561
     24 C         140.7390  142.2783  167.9795 C.ar    1  UNL1        0.0414
     25 C         140.9976  143.7481  170.1062 C.2     1  UNL1        0.2428
     26 N         142.4251  143.8082  170.5631 N.am    1  UNL1       -0.3253
     27 O         140.0921  144.9252  170.3178 O.2     1  UNL1       -0.2704
     28 H         143.0193  143.0357  170.4243 H       1  UNL1        0.1453
     29 H         142.7677  144.6202  171.0019 H       1  UNL1        0.1453
@<TRIPOS>BOND
     1    10     9    1
     2    10    11    1
     3    11    12   ar
     4    12    13   ar
     5    13    14   ar
     6    14    15   ar
     7    15    16    1
     8    15    17   ar
     9    10     1    1
    10     1     2    1
    11     2     3    1
    12     3     4    1
    13     5     4    1
    14     5     6    1
    15     6     7    1
    16     7    18    1
    17    18    19    1
    18    19    20   ar
    19    20    21   ar
    20    21    22   ar
    21    22    23   ar
    22    23    25    1
    23    25    26   am
    24    25    27    2
    25    23    24   ar
    26     7     8    1
    27    17    11   ar
    28     5     1    1
    29    24    19   ar
    30     8     2    1
    31    26    28    1
    32    26    29    1
@<TRIPOS>MOLECULE
*****
 29 32 0 0 0
SMALL
GASTEIGER

@<TRIPOS>ATOM
      1 N         141.6673  142.3577  168.3808 N.3     1  UNL1       -0.2727
      2 C         141.3692  143.1928  169.5906 C.3     1  UNL1        0.0613
      3 C         142.5959  143.2130  170.4537 C.3     1  UNL1        0.0175
      4 C         143.6521  142.3904  169.7771 C.3     1  UNL1        0.0175
      5 C         143.0782  141.8618  168.4960 C.3     1  UNL1        0.0613
      6 C         142.2520  141.4795  167.2917 C.3     1  UNL1        0.0595
      7 C         140.8639  142.0477  167.3140 C.3     1  UNL1        0.1686
      8 C         140.4225  142.9043  168.4634 C.3     1  UNL1        0.0595
      9 C         139.8580  140.8427  167.2938 C.3     1  UNL1        0.0222
     10 C         140.7206  142.0692  167.2536 C.3     1  UNL1        0.0802
     11 C         140.6366  143.0073  166.0861 C.ar    1  UNL1       -0.0039
     12 C         139.3410  143.6921  165.7659 C.ar    1  UNL1        0.0178
     13 C         139.2570  144.6302  164.5984 C.ar    1  UNL1        0.0996
     14 N         140.4685  144.8834  163.7511 N.ar    1  UNL1       -0.2325
     15 C         141.7641  144.1985  164.0712 C.ar    1  UNL1        0.1381
     16 CL        142.9757  144.4517  163.2238 Cl      1  UNL1       -0.0613
     17 C         141.8481  143.2605  165.2387 C.ar    1  UNL1        0.0278
     18 O         139.9173  141.7592  166.1867 O.3     1  UNL1       -0.4791
     19 C         139.9168  140.4082  165.5349 C.ar    1  UNL1        0.1385
     20 C         138.7438  139.4902  165.7124 C.ar    1  UNL1        0.0369
     21 C         138.7433  138.1393  165.0607 C.ar    1  UNL1        0.0033
     22 C         139.9158  137.7062  164.2314 C.ar    1  UNL1        0.0047
     23 C         141.0887  138.6242  164.0538 C.ar    1  UNL1        0.0561
     24 C         141.0892  139.9752  164.7056 C.ar    1  UNL1        0.0414
     25 C         142.2612  138.1911  163.2245 C.2     1  UNL1        0.2428
     26 N         142.0556  137.2708  162.0579 N.am    1  UNL1       -0.3253
     27 O         143.6392  138.6783  163.5617 O.2     1  UNL1       -0.2704
     28 H         141.1512  136.9510  161.8366 H       1  UNL1        0.1453
     29 H         142.8252  136.9866  161.5136 H       1  UNL1        0.1453
@<TRIPOS>BOND
     1    10     9    1
     2    10    11    1
     3    11    12   ar
     4    12    13   ar
     5    13    14   ar
     6    14    15   ar
     7    15    16    1
     8    15    17   ar
     9    10     1    1
    10     1     2    1
    11     2     3    1
    12     3     4    1
    13     5     4    1
    14     5     6    1
    15     6     7    1
    16     7    18    1
    17    18    19    1
    18    19    20   ar
    19    20    21   ar
    20    21    22   ar
    21    22    23   ar
    22    23    25    1
    23    25    26   am
    24    25    27    2
    25    23    24   ar
    26     7     8    1
    27    17    11   ar
    28     5     1    1
    29    24    19   ar
    30     8     2    1
    31    26    28    1
    32    26    29    1
