@<TRIPOS>MOLECULE
*****
 35 38 0 0 0
SMALL
GASTEIGER

@<TRIPOS>ATOM
      1 C         141.4940  144.9447  162.1360 C.3     1  UNL1        0.0401
      2 C         142.4111  144.4933  163.2337 C.3     1  UNL1        0.0595
      3 C         143.8852  144.7522  163.1335 C.3     1  UNL1        0.0174
      4 C         140.7401  142.3624  166.8278 C.3     1  UNL1        0.0905
      5 C         139.8403  143.1965  165.9649 C.3     1  UNL1        0.0400
      6 C         140.3973  143.9068  164.7669 C.3     1  UNL1        0.0740
      7 N         141.8541  143.7830  164.4318 N.3     1  UNL1       -0.2738
      8 C         142.7540  142.9489  165.2946 C.3     1  UNL1        0.0740
      9 C         142.1970  142.2386  166.4926 C.3     1  UNL1        0.0400
     10 C         140.6958  143.5028  169.8851 C.3     1  UNL1        0.0738
     11 C         140.1628  142.1763  169.4311 C.ar    1  UNL1        0.1433
     12 N         139.5158  141.1410  170.3026 N.ar    1  UNL1       -0.1337
     13 N         139.1363  139.9769  169.4360 N.ar    1  UNL1       -0.1337
     14 C         139.5487  140.2928  168.0289 C.ar    1  UNL1        0.1425
     15 N         140.1831  141.6521  168.0258 N.ar    1  UNL1       -0.3039
     16 C         139.3599  139.4053  166.8345 C.3     1  UNL1        0.0588
     17 C         140.5398  139.0203  165.9921 C.3     1  UNL1        0.0080
     18 C         137.9912  138.9027  166.4824 C.3     1  UNL1        0.0080
     19 C         141.1540  144.0119  161.0116 C.3     1  UNL1        0.0954
     20 C         141.2877  144.4709  159.5898 C.ar    1  UNL1       -0.0045
     21 C         142.3585  143.8928  158.7127 C.ar    1  UNL1       -0.0027
     22 C         142.4922  144.3518  157.2909 C.ar    1  UNL1       -0.0003
     23 C         141.5551  145.3889  156.7463 C.ar    1  UNL1       -0.0000
     24 C         140.4845  145.9669  157.6234 C.ar    1  UNL1       -0.0003
     25 C         140.3507  145.5079  159.0452 C.ar    1  UNL1       -0.0027
     26 N         140.6803  142.6201  161.3090 N.am    1  UNL1       -0.3022
     27 C         139.2198  142.3550  161.5250 C.2     1  UNL1        0.2225
     28 O         138.2330  143.4818  161.4436 O.2     1  UNL1       -0.2751
     29 H         141.3279  141.8805  161.3624 H       1  UNL1        0.1497
     30 C         138.7461  140.9632  161.8223 C.3     1  UNL1        0.0873
     31 C         139.0810  139.9263  162.8533 C.3     1  UNL1        0.0758
     32 C         138.0763  138.9948  162.2429 C.3     1  UNL1        0.2649
     33 F         137.0714  138.0633  161.6324 F       1  UNL1       -0.2043
     34 F         138.4111  137.9580  163.2737 F       1  UNL1       -0.2043
     35 C         137.7413  140.0316  161.2119 C.3     1  UNL1        0.0758
@<TRIPOS>BOND
     1    10    11    1
     2    11    12   ar
     3    12    13   ar
     4    13    14   ar
     5    14    16    1
     6    16    17    1
     7    16    18    1
     8    14    15   ar
     9    15     4    1
    10     4     5    1
    11     5     6    1
    12     6     7    1
    13     7     2    1
    14     2     3    1
    15     2     1    1
    16    19     1    1
    17    19    26    1
    18    26    27   am
    19    27    28    2
    20    27    30    1
    21    30    31    1
    22    31    32    1
    23    32    33    1
    24    32    34    1
    25    32    35    1
    26    19    20    1
    27    20    21   ar
    28    21    22   ar
    29    22    23   ar
    30    23    24   ar
    31    24    25   ar
    32     7     8    1
    33     8     9    1
    34    15    11   ar
    35     9     4    1
    36    35    30    1
    37    25    20   ar
    38    26    29    1
@<TRIPOS>MOLECULE
*****
 35 38 0 0 0
SMALL
GASTEIGER

@<TRIPOS>ATOM
      1 C         141.5249  144.9236  161.9955 C.3     1  UNL1        0.0401
      2 C         142.4360  144.4573  163.0920 C.3     1  UNL1        0.0595
      3 C         143.9034  144.7615  163.0281 C.3     1  UNL1        0.0174
      4 C         140.7669  142.1458  166.5736 C.3     1  UNL1        0.0905
      5 C         142.1641  141.8795  166.0972 C.3     1  UNL1        0.0400
      6 C         142.7204  142.6500  164.9367 C.3     1  UNL1        0.0740
      7 N         141.8796  143.6868  164.2526 N.3     1  UNL1       -0.2738
      8 C         140.4824  143.9531  164.7290 C.3     1  UNL1        0.0740
      9 C         139.9261  143.1826  165.8894 C.3     1  UNL1        0.0400
     10 C         139.0742  139.3616  166.3930 C.3     1  UNL1        0.0738
     11 C         139.4325  140.0955  167.6511 C.ar    1  UNL1        0.1433
     12 N         139.0756  139.6786  169.0471 N.ar    1  UNL1       -0.1337
     13 N         139.6331  140.7007  169.9929 N.ar    1  UNL1       -0.1337
     14 C         140.3345  141.7493  169.1815 C.ar    1  UNL1        0.1425
     15 N         140.2105  141.3753  167.7341 N.ar    1  UNL1       -0.3039
     16 C         141.0366  142.9594  169.7224 C.3     1  UNL1        0.0588
     17 C         140.2607  144.2101  170.0114 C.3     1  UNL1        0.0080
     18 C         142.5148  142.9189  169.9743 C.3     1  UNL1        0.0080
     19 C         141.1473  143.9881  160.8855 C.3     1  UNL1        0.0954
     20 C         141.2366  144.4424  159.4587 C.ar    1  UNL1       -0.0045
     21 C         140.2757  145.4693  158.9370 C.ar    1  UNL1       -0.0027
     22 C         140.3650  145.9236  157.5102 C.ar    1  UNL1       -0.0003
     23 C         141.4153  145.3509  156.6052 C.ar    1  UNL1       -0.0000
     24 C         142.3762  144.3241  157.1269 C.ar    1  UNL1       -0.0003
     25 C         142.2868  143.8698  158.5537 C.ar    1  UNL1       -0.0027
     26 N         140.6803  142.5983  161.2022 N.am    1  UNL1       -0.3022
     27 C         139.2176  142.3225  161.3875 C.2     1  UNL1        0.2225
     28 O         138.2218  143.4366  161.2561 O.2     1  UNL1       -0.2751
     29 H         141.3338  141.8670  161.2884 H       1  UNL1        0.1497
     30 C         138.7506  140.9327  161.7042 C.3     1  UNL1        0.0873
     31 C         139.1380  139.8862  162.7066 C.3     1  UNL1        0.0758
     32 C         138.0903  138.9672  162.1521 C.3     1  UNL1        0.2649
     33 F         137.0424  138.0482  161.5976 F       1  UNL1       -0.2043
     34 F         138.4776  137.9207  163.1544 F       1  UNL1       -0.2043
     35 C         137.7028  140.0137  161.1498 C.3     1  UNL1        0.0758
@<TRIPOS>BOND
     1    10    11    1
     2    11    12   ar
     3    12    13   ar
     4    13    14   ar
     5    14    16    1
     6    16    17    1
     7    16    18    1
     8    14    15   ar
     9    15     4    1
    10     4     5    1
    11     5     6    1
    12     6     7    1
    13     7     2    1
    14     2     3    1
    15     2     1    1
    16    19     1    1
    17    19    26    1
    18    26    27   am
    19    27    28    2
    20    27    30    1
    21    30    31    1
    22    31    32    1
    23    32    33    1
    24    32    34    1
    25    32    35    1
    26    19    20    1
    27    20    21   ar
    28    21    22   ar
    29    22    23   ar
    30    23    24   ar
    31    24    25   ar
    32     7     8    1
    33     8     9    1
    34    15    11   ar
    35     9     4    1
    36    35    30    1
    37    25    20   ar
    38    26    29    1
@<TRIPOS>MOLECULE
*****
 35 38 0 0 0
SMALL
GASTEIGER

@<TRIPOS>ATOM
      1 C         144.4892  140.1062  162.2657 C.3     1  UNL1        0.0401
      2 C         144.7468  140.8008  163.5700 C.3     1  UNL1        0.0595
      3 C         145.9541  141.6768  163.7276 C.3     1  UNL1        0.0174
      4 C         141.8976  140.2561  167.0103 C.3     1  UNL1        0.0905
      5 C         142.3540  141.6320  166.6251 C.3     1  UNL1        0.0400
      6 C         143.3037  141.8136  165.4783 C.3     1  UNL1        0.0740
      7 N         143.7970  140.6192  164.7168 N.3     1  UNL1       -0.2738
      8 C         143.3407  139.2432  165.1020 C.3     1  UNL1        0.0740
      9 C         142.3910  139.0616  166.2487 C.3     1  UNL1        0.0400
     10 C         142.6606  140.4281  170.1786 C.3     1  UNL1        0.0738
     11 C         141.2986  140.1535  169.6133 C.ar    1  UNL1        0.1433
     12 N         140.0481  139.9098  170.4051 N.ar    1  UNL1       -0.1337
     13 N         138.9245  139.6801  169.4382 N.ar    1  UNL1       -0.1337
     14 C         139.4806  139.7819  168.0488 C.ar    1  UNL1        0.1425
     15 N         140.9479  140.0745  168.1571 N.ar    1  UNL1       -0.3039
     16 C         138.7056  139.6196  166.7749 C.3     1  UNL1        0.0588
     17 C         137.8692  138.3936  166.5568 C.3     1  UNL1        0.0080
     18 C         138.7668  140.6832  165.7190 C.3     1  UNL1        0.0080
     19 C         143.3780  140.5743  161.3734 C.3     1  UNL1        0.0954
     20 C         143.1723  139.9337  160.0328 C.ar    1  UNL1       -0.0045
     21 C         142.8722  138.4668  159.9406 C.ar    1  UNL1       -0.0027
     22 C         142.6665  137.8262  158.5999 C.ar    1  UNL1       -0.0003
     23 C         142.7608  138.6525  157.3515 C.ar    1  UNL1       -0.0000
     24 C         143.0608  140.1192  157.4437 C.ar    1  UNL1       -0.0003
     25 C         143.2665  140.7598  158.7844 C.ar    1  UNL1       -0.0027
     26 N         142.4725  141.6830  161.8218 N.am    1  UNL1       -0.3022
     27 C         141.1646  141.3623  162.4825 C.2     1  UNL1        0.2225
     28 O         140.7622  139.9330  162.6950 O.2     1  UNL1       -0.2751
     29 H         142.7366  142.6211  161.6823 H       1  UNL1        0.1497
     30 C         140.2592  142.4710  162.9308 C.3     1  UNL1        0.0873
     31 C         138.8533  142.8864  162.6132 C.3     1  UNL1        0.0758
     32 C         138.9787  144.0389  163.5648 C.3     1  UNL1        0.2649
     33 F         139.1042  145.1915  164.5166 F       1  UNL1       -0.2043
     34 F         137.5729  144.4543  163.2472 F       1  UNL1       -0.2043
     35 C         140.3846  143.6236  163.8826 C.3     1  UNL1        0.0758
@<TRIPOS>BOND
     1    10    11    1
     2    11    12   ar
     3    12    13   ar
     4    13    14   ar
     5    14    16    1
     6    16    17    1
     7    16    18    1
     8    14    15   ar
     9    15     4    1
    10     4     5    1
    11     5     6    1
    12     6     7    1
    13     7     2    1
    14     2     3    1
    15     2     1    1
    16    19     1    1
    17    19    26    1
    18    26    27   am
    19    27    28    2
    20    27    30    1
    21    30    31    1
    22    31    32    1
    23    32    33    1
    24    32    34    1
    25    32    35    1
    26    19    20    1
    27    20    21   ar
    28    21    22   ar
    29    22    23   ar
    30    23    24   ar
    31    24    25   ar
    32     7     8    1
    33     8     9    1
    34    15    11   ar
    35     9     4    1
    36    35    30    1
    37    25    20   ar
    38    26    29    1
@<TRIPOS>MOLECULE
*****
 35 38 0 0 0
SMALL
GASTEIGER

@<TRIPOS>ATOM
      1 C         141.8077  142.8051  162.5506 C.3     1  UNL1        0.0401
      2 C         142.5756  143.4281  163.6785 C.3     1  UNL1        0.0595
      3 C         143.6968  144.3808  163.3864 C.3     1  UNL1        0.0174
      4 C         141.5157  142.4390  167.9386 C.3     1  UNL1        0.0905
      5 C         142.9441  142.3703  167.4858 C.3     1  UNL1        0.0400
      6 C         143.2973  142.7000  166.0658 C.3     1  UNL1        0.0740
      7 N         142.2222  143.0984  165.0986 N.3     1  UNL1       -0.2738
      8 C         140.7939  143.1671  165.5514 C.3     1  UNL1        0.0740
      9 C         140.4406  142.8374  166.9714 C.3     1  UNL1        0.0400
     10 C         140.3043  144.5154  170.1456 C.3     1  UNL1        0.0738
     11 C         140.6056  143.0637  170.3731 C.ar    1  UNL1        0.1433
     12 N         140.4029  142.3116  171.6549 N.ar    1  UNL1       -0.1337
     13 N         140.8345  140.8922  171.4328 N.ar    1  UNL1       -0.1337
     14 C         141.3039  140.7673  170.0136 C.ar    1  UNL1        0.1425
     15 N         141.1624  142.1093  169.3587 N.ar    1  UNL1       -0.3039
     16 C         141.8235  139.5193  169.3635 C.3     1  UNL1        0.0588
     17 C         141.4678  139.2117  167.9392 C.3     1  UNL1        0.0080
     18 C         142.6988  138.5789  170.1378 C.3     1  UNL1        0.0080
     19 C         141.7143  141.3120  162.4414 C.3     1  UNL1        0.0954
     20 C         142.2457  140.6143  161.2246 C.ar    1  UNL1       -0.0045
     21 C         141.8281  139.2049  160.9259 C.ar    1  UNL1       -0.0027
     22 C         142.3596  138.5071  159.7090 C.ar    1  UNL1       -0.0003
     23 C         143.3086  139.2188  158.7909 C.ar    1  UNL1       -0.0000
     24 C         143.7261  140.6282  159.0896 C.ar    1  UNL1       -0.0003
     25 C         143.1947  141.3259  160.3065 C.ar    1  UNL1       -0.0027
     26 N         141.0895  140.5166  163.5492 N.am    1  UNL1       -0.3022
     27 C         139.6142  140.2460  163.5383 C.2     1  UNL1        0.2225
     28 O         138.7636  140.7708  162.4198 O.2     1  UNL1       -0.2751
     29 H         141.6477  140.1722  164.2833 H       1  UNL1        0.1497
     30 C         138.9894  139.4506  164.6460 C.3     1  UNL1        0.0873
     31 C         138.8214  137.9890  164.9381 C.3     1  UNL1        0.0758
     32 C         138.1059  138.3258  166.2126 C.3     1  UNL1        0.2649
     33 F         137.3903  138.6627  167.4871 F       1  UNL1       -0.2043
     34 F         137.9379  136.8642  166.5046 F       1  UNL1       -0.2043
     35 C         138.2739  139.7875  165.9206 C.3     1  UNL1        0.0758
@<TRIPOS>BOND
     1    10    11    1
     2    11    12   ar
     3    12    13   ar
     4    13    14   ar
     5    14    16    1
     6    16    17    1
     7    16    18    1
     8    14    15   ar
     9    15     4    1
    10     4     5    1
    11     5     6    1
    12     6     7    1
    13     7     2    1
    14     2     3    1
    15     2     1    1
    16    19     1    1
    17    19    26    1
    18    26    27   am
    19    27    28    2
    20    27    30    1
    21    30    31    1
    22    31    32    1
    23    32    33    1
    24    32    34    1
    25    32    35    1
    26    19    20    1
    27    20    21   ar
    28    21    22   ar
    29    22    23   ar
    30    23    24   ar
    31    24    25   ar
    32     7     8    1
    33     8     9    1
    34    15    11   ar
    35     9     4    1
    36    35    30    1
    37    25    20   ar
    38    26    29    1
@<TRIPOS>MOLECULE
*****
 35 38 0 0 0
SMALL
GASTEIGER

@<TRIPOS>ATOM
      1 C         143.9698  141.1708  162.1888 C.3     1  UNL1        0.0401
      2 C         144.5110  141.2793  163.5835 C.3     1  UNL1        0.0595
      3 C         145.9488  141.6457  163.8037 C.3     1  UNL1        0.0174
      4 C         141.8214  140.5053  167.1072 C.3     1  UNL1        0.0905
      5 C         142.3170  139.3592  166.2761 C.3     1  UNL1        0.0400
      6 C         143.2136  139.6172  165.1015 C.3     1  UNL1        0.0740
      7 N         143.6144  141.0213  164.7581 N.3     1  UNL1       -0.2738
      8 C         143.1188  142.1673  165.5893 C.3     1  UNL1        0.0740
      9 C         142.2222  141.9093  166.7638 C.3     1  UNL1        0.0400
     10 C         142.6697  140.7179  170.2512 C.3     1  UNL1        0.0738
     11 C         141.3147  140.3450  169.7269 C.ar    1  UNL1        0.1433
     12 N         140.1118  140.0044  170.5557 N.ar    1  UNL1       -0.1337
     13 N         138.9783  139.6962  169.6228 N.ar    1  UNL1       -0.1337
     14 C         139.4808  139.8463  168.2175 C.ar    1  UNL1        0.1425
     15 N         140.9248  140.2473  168.2818 N.ar    1  UNL1       -0.3039
     16 C         138.6799  139.6328  166.9673 C.3     1  UNL1        0.0588
     17 C         137.7277  138.4775  166.8746 C.3     1  UNL1        0.0080
     18 C         138.8311  140.5747  165.8097 C.3     1  UNL1        0.0080
     19 C         143.0954  142.2574  161.6370 C.3     1  UNL1        0.0954
     20 C         143.1417  142.5873  160.1745 C.ar    1  UNL1       -0.0045
     21 C         142.3350  143.7326  159.6380 C.ar    1  UNL1       -0.0027
     22 C         142.3813  144.0625  158.1755 C.ar    1  UNL1       -0.0003
     23 C         143.2344  143.2472  157.2494 C.ar    1  UNL1       -0.0000
     24 C         144.0411  142.1020  157.7858 C.ar    1  UNL1       -0.0003
     25 C         143.9947  141.7721  159.2484 C.ar    1  UNL1       -0.0027
     26 N         142.1745  143.0142  162.5477 N.am    1  UNL1       -0.3022
     27 C         140.7448  142.5847  162.6943 C.2     1  UNL1        0.2225
     28 O         140.2359  141.3986  161.9301 O.2     1  UNL1       -0.2751
     29 H         142.5085  143.7927  163.0493 H       1  UNL1        0.1497
     30 C         139.8240  143.3415  163.6050 C.3     1  UNL1        0.0873
     31 C         140.0094  144.3259  164.7215 C.3     1  UNL1        0.0758
     32 C         138.5218  144.4117  164.8929 C.3     1  UNL1        0.2649
     33 F         137.0341  144.4975  165.0644 F       1  UNL1       -0.2043
     34 F         138.7072  145.3961  166.0094 F       1  UNL1       -0.2043
     35 C         138.3363  143.4273  163.7765 C.3     1  UNL1        0.0758
@<TRIPOS>BOND
     1    10    11    1
     2    11    12   ar
     3    12    13   ar
     4    13    14   ar
     5    14    16    1
     6    16    17    1
     7    16    18    1
     8    14    15   ar
     9    15     4    1
    10     4     5    1
    11     5     6    1
    12     6     7    1
    13     7     2    1
    14     2     3    1
    15     2     1    1
    16    19     1    1
    17    19    26    1
    18    26    27   am
    19    27    28    2
    20    27    30    1
    21    30    31    1
    22    31    32    1
    23    32    33    1
    24    32    34    1
    25    32    35    1
    26    19    20    1
    27    20    21   ar
    28    21    22   ar
    29    22    23   ar
    30    23    24   ar
    31    24    25   ar
    32     7     8    1
    33     8     9    1
    34    15    11   ar
    35     9     4    1
    36    35    30    1
    37    25    20   ar
    38    26    29    1
@<TRIPOS>MOLECULE
*****
 35 38 0 0 0
SMALL
GASTEIGER

@<TRIPOS>ATOM
      1 C         144.4026  143.2172  162.8712 C.3     1  UNL1        0.0401
      2 C         144.7364  142.1275  163.8465 C.3     1  UNL1        0.0595
      3 C         146.0872  141.4764  163.8103 C.3     1  UNL1        0.0174
      4 C         141.6851  140.8116  166.8809 C.3     1  UNL1        0.0905
      5 C         142.3085  139.8056  165.9593 C.3     1  UNL1        0.0400
      6 C         143.3256  140.2442  164.9479 C.3     1  UNL1        0.0740
      7 N         143.7192  141.6889  164.8580 N.3     1  UNL1       -0.2738
      8 C         143.0958  142.6948  165.7795 C.3     1  UNL1        0.0740
      9 C         142.0787  142.2562  166.7910 C.3     1  UNL1        0.0400
     10 C         138.7084  139.6448  166.2265 C.3     1  UNL1        0.0738
     11 C         139.2997  139.8367  167.5916 C.ar    1  UNL1        0.1433
     12 N         138.6267  139.5259  168.8955 N.ar    1  UNL1       -0.1337
     13 N         139.5789  139.8701  170.0023 N.ar    1  UNL1       -0.1337
     14 C         140.8404  140.3936  169.3823 C.ar    1  UNL1        0.1425
     15 N         140.6679  140.3729  167.8924 N.ar    1  UNL1       -0.3039
     16 C         142.0603  140.8565  170.1223 C.3     1  UNL1        0.0588
     17 C         142.2424  142.3129  170.4315 C.3     1  UNL1        0.0080
     18 C         143.0982  139.8629  170.5531 C.3     1  UNL1        0.0080
     19 C         143.1853  143.0995  162.0028 C.3     1  UNL1        0.0954
     20 C         143.3256  143.1080  160.5094 C.ar    1  UNL1       -0.0045
     21 C         144.5182  142.4662  159.8645 C.ar    1  UNL1       -0.0027
     22 C         144.6586  142.4748  158.3711 C.ar    1  UNL1       -0.0003
     23 C         143.6063  143.1252  157.5226 C.ar    1  UNL1       -0.0000
     24 C         142.4138  143.7669  158.1675 C.ar    1  UNL1       -0.0003
     25 C         142.2735  143.7584  159.6609 C.ar    1  UNL1       -0.0027
     26 N         141.8275  142.9732  162.6278 N.am    1  UNL1       -0.3022
     27 C         141.1837  144.1659  163.2703 C.2     1  UNL1        0.2225
     28 O         141.8977  145.4850  163.2878 O.2     1  UNL1       -0.2751
     29 H         141.3589  142.1074  162.6162 H       1  UNL1        0.1497
     30 C         139.8260  144.0396  163.8952 C.3     1  UNL1        0.0873
     31 C         138.7759  142.9695  163.9435 C.3     1  UNL1        0.0758
     32 C         137.9058  143.8609  164.7790 C.3     1  UNL1        0.2649
     33 F         137.0358  144.7525  165.6146 F       1  UNL1       -0.2043
     34 F         136.8558  142.7910  164.8273 F       1  UNL1       -0.2043
     35 C         138.9559  144.9311  164.7308 C.3     1  UNL1        0.0758
@<TRIPOS>BOND
     1    10    11    1
     2    11    12   ar
     3    12    13   ar
     4    13    14   ar
     5    14    16    1
     6    16    17    1
     7    16    18    1
     8    14    15   ar
     9    15     4    1
    10     4     5    1
    11     5     6    1
    12     6     7    1
    13     7     2    1
    14     2     3    1
    15     2     1    1
    16    19     1    1
    17    19    26    1
    18    26    27   am
    19    27    28    2
    20    27    30    1
    21    30    31    1
    22    31    32    1
    23    32    33    1
    24    32    34    1
    25    32    35    1
    26    19    20    1
    27    20    21   ar
    28    21    22   ar
    29    22    23   ar
    30    23    24   ar
    31    24    25   ar
    32     7     8    1
    33     8     9    1
    34    15    11   ar
    35     9     4    1
    36    35    30    1
    37    25    20   ar
    38    26    29    1
@<TRIPOS>MOLECULE
*****
 35 38 0 0 0
SMALL
GASTEIGER

@<TRIPOS>ATOM
      1 C         144.1512  142.8199  162.5067 C.3     1  UNL1        0.0401
      2 C         143.5274  143.7292  163.5235 C.3     1  UNL1        0.0595
      3 C         143.6939  145.2151  163.4033 C.3     1  UNL1        0.0174
      4 C         141.1563  141.9996  166.9347 C.3     1  UNL1        0.0905
      5 C         142.5969  141.6222  166.7553 C.3     1  UNL1        0.0400
      6 C         143.3872  142.1987  165.6183 C.3     1  UNL1        0.0740
      7 N         142.7370  143.1527  164.6606 N.3     1  UNL1       -0.2738
      8 C         141.2964  143.5302  164.8400 C.3     1  UNL1        0.0740
      9 C         140.5061  142.9536  165.9771 C.3     1  UNL1        0.0400
     10 C         139.2125  139.3824  166.7872 C.3     1  UNL1        0.0738
     11 C         139.4725  140.2201  168.0040 C.ar    1  UNL1        0.1433
     12 N         138.8846  140.0019  169.3666 N.ar    1  UNL1       -0.1337
     13 N         139.4147  141.0701  170.2767 N.ar    1  UNL1       -0.1337
     14 C         140.3302  141.9484  169.4764 C.ar    1  UNL1        0.1425
     15 N         140.3659  141.4231  168.0718 N.ar    1  UNL1       -0.3039
     16 C         141.0786  143.1423  169.9905 C.3     1  UNL1        0.0588
     17 C         140.3682  144.4504  170.1751 C.3     1  UNL1        0.0080
     18 C         142.5375  143.0282  170.3201 C.3     1  UNL1        0.0080
     19 C         143.2821  142.0273  161.5759 C.3     1  UNL1        0.0954
     20 C         143.4677  142.1469  160.0922 C.ar    1  UNL1       -0.0045
     21 C         142.3024  141.9367  159.1713 C.ar    1  UNL1       -0.0027
     22 C         142.4880  142.0562  157.6876 C.ar    1  UNL1       -0.0003
     23 C         143.8388  142.3860  157.1249 C.ar    1  UNL1       -0.0000
     24 C         145.0040  142.5961  158.0458 C.ar    1  UNL1       -0.0003
     25 C         144.8184  142.4766  159.5295 C.ar    1  UNL1       -0.0027
     26 N         142.2273  141.1152  162.1287 N.am    1  UNL1       -0.3022
     27 C         142.5984  139.7432  162.6080 C.2     1  UNL1        0.2225
     28 O         144.0243  139.2832  162.5345 O.2     1  UNL1       -0.2751
     29 H         141.2915  141.4171  162.1770 H       1  UNL1        0.1497
     30 C         141.5437  138.8311  163.1608 C.3     1  UNL1        0.0873
     31 C         141.4778  137.8486  164.2924 C.3     1  UNL1        0.0758
     32 C         140.0520  137.5412  163.9426 C.3     1  UNL1        0.2649
     33 F         138.6261  137.2339  163.5928 F       1  UNL1       -0.2043
     34 F         139.9862  136.5588  165.0741 F       1  UNL1       -0.2043
     35 C         140.1178  138.5237  162.8110 C.3     1  UNL1        0.0758
@<TRIPOS>BOND
     1    10    11    1
     2    11    12   ar
     3    12    13   ar
     4    13    14   ar
     5    14    16    1
     6    16    17    1
     7    16    18    1
     8    14    15   ar
     9    15     4    1
    10     4     5    1
    11     5     6    1
    12     6     7    1
    13     7     2    1
    14     2     3    1
    15     2     1    1
    16    19     1    1
    17    19    26    1
    18    26    27   am
    19    27    28    2
    20    27    30    1
    21    30    31    1
    22    31    32    1
    23    32    33    1
    24    32    34    1
    25    32    35    1
    26    19    20    1
    27    20    21   ar
    28    21    22   ar
    29    22    23   ar
    30    23    24   ar
    31    24    25   ar
    32     7     8    1
    33     8     9    1
    34    15    11   ar
    35     9     4    1
    36    35    30    1
    37    25    20   ar
    38    26    29    1
@<TRIPOS>MOLECULE
*****
 35 38 0 0 0
SMALL
GASTEIGER

@<TRIPOS>ATOM
      1 C         144.3178  143.4512  162.6750 C.3     1  UNL1        0.0401
      2 C         143.5867  144.0774  163.8254 C.3     1  UNL1        0.0595
      3 C         143.7562  145.5393  164.1153 C.3     1  UNL1        0.0174
      4 C         140.8849  141.5701  166.4068 C.3     1  UNL1        0.0905
      5 C         140.3392  142.7739  165.6975 C.3     1  UNL1        0.0400
      6 C         141.2398  143.6096  164.8371 C.3     1  UNL1        0.0740
      7 N         142.6861  143.2416  164.6859 N.3     1  UNL1       -0.2738
      8 C         143.2317  142.0378  165.3952 C.3     1  UNL1        0.0740
      9 C         142.3311  141.2021  166.2557 C.3     1  UNL1        0.0400
     10 C         140.5473  141.8227  169.6429 C.3     1  UNL1        0.0738
     11 C         139.8291  140.8505  168.7547 C.ar    1  UNL1        0.1433
     12 N         138.8297  139.8236  169.1981 N.ar    1  UNL1       -0.1337
     13 N         138.3671  139.0728  167.9847 N.ar    1  UNL1       -0.1337
     14 C         139.0806  139.6357  166.7914 C.ar    1  UNL1        0.1425
     15 N         139.9842  140.7343  167.2673 N.ar    1  UNL1       -0.3039
     16 C         138.9190  139.1799  165.3715 C.3     1  UNL1        0.0588
     17 C         138.2031  140.0500  164.3814 C.3     1  UNL1        0.0080
     18 C         139.4733  137.8540  164.9417 C.3     1  UNL1        0.0080
     19 C         143.5552  142.7182  161.6115 C.3     1  UNL1        0.0954
     20 C         143.1660  141.2848  161.8208 C.ar    1  UNL1       -0.0045
     21 C         141.7177  140.9086  161.9266 C.ar    1  UNL1       -0.0027
     22 C         141.3285  139.4752  162.1359 C.ar    1  UNL1       -0.0003
     23 C         142.3875  138.4179  162.2394 C.ar    1  UNL1       -0.0000
     24 C         143.8357  138.7941  162.1337 C.ar    1  UNL1       -0.0003
     25 C         144.2249  140.2275  161.9244 C.ar    1  UNL1       -0.0027
     26 N         143.1819  143.4185  160.3386 N.am    1  UNL1       -0.3022
     27 C         141.8980  144.1895  160.2556 C.2     1  UNL1        0.2225
     28 O         140.9873  144.2603  161.4454 O.2     1  UNL1       -0.2751
     29 H         143.7796  143.3721  159.5577 H       1  UNL1        0.1497
     30 C         141.5247  144.8898  158.9827 C.3     1  UNL1        0.0873
     31 C         142.1935  145.1113  157.6584 C.3     1  UNL1        0.0758
     32 C         140.9968  145.8802  157.1826 C.3     1  UNL1        0.2649
     33 F         139.8000  146.6492  156.7068 F       1  UNL1       -0.2043
     34 F         141.6655  146.1017  155.8584 F       1  UNL1       -0.2043
     35 C         140.3279  145.6588  158.5068 C.3     1  UNL1        0.0758
@<TRIPOS>BOND
     1    10    11    1
     2    11    12   ar
     3    12    13   ar
     4    13    14   ar
     5    14    16    1
     6    16    17    1
     7    16    18    1
     8    14    15   ar
     9    15     4    1
    10     4     5    1
    11     5     6    1
    12     6     7    1
    13     7     2    1
    14     2     3    1
    15     2     1    1
    16    19     1    1
    17    19    26    1
    18    26    27   am
    19    27    28    2
    20    27    30    1
    21    30    31    1
    22    31    32    1
    23    32    33    1
    24    32    34    1
    25    32    35    1
    26    19    20    1
    27    20    21   ar
    28    21    22   ar
    29    22    23   ar
    30    23    24   ar
    31    24    25   ar
    32     7     8    1
    33     8     9    1
    34    15    11   ar
    35     9     4    1
    36    35    30    1
    37    25    20   ar
    38    26    29    1
@<TRIPOS>MOLECULE
*****
 35 38 0 0 0
SMALL
GASTEIGER

@<TRIPOS>ATOM
      1 C         138.4818  142.5621  161.9977 C.3     1  UNL1        0.0401
      2 C         138.4556  143.1166  163.3912 C.3     1  UNL1        0.0595
      3 C         137.7199  144.3920  163.6772 C.3     1  UNL1        0.0174
      4 C         140.5846  140.9534  166.7136 C.3     1  UNL1        0.0905
      5 C         139.6706  140.2003  165.7931 C.3     1  UNL1        0.0400
      6 C         138.9609  140.9213  164.6857 C.3     1  UNL1        0.0740
      7 N         139.1653  142.3955  164.4987 N.3     1  UNL1       -0.2738
      8 C         140.0793  143.1487  165.4192 C.3     1  UNL1        0.0740
      9 C         140.7889  142.4276  166.5266 C.3     1  UNL1        0.0400
     10 C         143.2567  139.1069  166.3974 C.3     1  UNL1        0.0738
     11 C         142.5224  139.3837  167.6757 C.ar    1  UNL1        0.1433
     12 N         142.8875  138.8603  169.0332 N.ar    1  UNL1       -0.1337
     13 N         141.8849  139.3855  170.0176 N.ar    1  UNL1       -0.1337
     14 C         140.9003  140.2336  169.2685 C.ar    1  UNL1        0.1425
     15 N         141.2942  140.2324  167.8211 N.ar    1  UNL1       -0.3039
     16 C         139.7275  140.9559  169.8624 C.3     1  UNL1        0.0588
     17 C         139.8545  142.3986  170.2528 C.3     1  UNL1        0.0080
     18 C         138.4276  140.2355  170.0660 C.3     1  UNL1        0.0080
     19 C         139.7551  142.5846  161.2053 C.3     1  UNL1        0.0954
     20 C         139.8110  143.3146  159.8960 C.ar    1  UNL1       -0.0045
     21 C         139.4586  142.6016  158.6242 C.ar    1  UNL1       -0.0027
     22 C         139.5144  143.3316  157.3150 C.ar    1  UNL1       -0.0003
     23 C         139.9226  144.7745  157.2776 C.ar    1  UNL1       -0.0000
     24 C         140.2750  145.4874  158.5494 C.ar    1  UNL1       -0.0003
     25 C         140.2192  144.7574  159.8586 C.ar    1  UNL1       -0.0027
     26 N         140.9728  141.8772  161.7221 N.am    1  UNL1       -0.3022
     27 C         142.0564  142.6540  162.4092 C.2     1  UNL1        0.2225
     28 O         141.9225  144.1383  162.5797 O.2     1  UNL1       -0.2751
     29 H         141.0607  140.9030  161.6102 H       1  UNL1        0.1497
     30 C         143.2739  141.9466  162.9260 C.3     1  UNL1        0.0873
     31 C         143.6747  140.5111  163.0956 C.3     1  UNL1        0.0758
     32 C         144.9958  140.9461  163.6568 C.3     1  UNL1        0.2649
     33 F         146.3171  141.3813  164.2181 F       1  UNL1       -0.2043
     34 F         145.3966  139.5107  163.8264 F       1  UNL1       -0.2043
     35 C         144.5952  142.3816  163.4873 C.3     1  UNL1        0.0758
@<TRIPOS>BOND
     1    10    11    1
     2    11    12   ar
     3    12    13   ar
     4    13    14   ar
     5    14    16    1
     6    16    17    1
     7    16    18    1
     8    14    15   ar
     9    15     4    1
    10     4     5    1
    11     5     6    1
    12     6     7    1
    13     7     2    1
    14     2     3    1
    15     2     1    1
    16    19     1    1
    17    19    26    1
    18    26    27   am
    19    27    28    2
    20    27    30    1
    21    30    31    1
    22    31    32    1
    23    32    33    1
    24    32    34    1
    25    32    35    1
    26    19    20    1
    27    20    21   ar
    28    21    22   ar
    29    22    23   ar
    30    23    24   ar
    31    24    25   ar
    32     7     8    1
    33     8     9    1
    34    15    11   ar
    35     9     4    1
    36    35    30    1
    37    25    20   ar
    38    26    29    1
