@<TRIPOS>MOLECULE
*****
 30 33 0 0 0
SMALL
GASTEIGER

@<TRIPOS>ATOM
      1 N         139.8101  139.3129  166.5856 N.am    1  UNL1       -0.2707
      2 C         139.5100  139.6510  168.0159 C.2     1  UNL1        0.2686
      3 O         138.1474  139.3789  168.5809 O.2     1  UNL1       -0.2682
      4 C         140.5725  140.2613  168.8811 C.ar    1  UNL1        0.1535
      5 C         140.8861  141.7239  168.9930 C.ar    1  UNL1        0.1012
      6 N         142.0153  141.8826  169.9674 N.ar    1  UNL1       -0.3057
      7 C         142.6490  143.1784  170.3792 C.3     1  UNL1        0.1321
      8 C         142.3997  140.5181  170.4577 C.ar    1  UNL1        0.1787
      9 N         141.5081  139.5162  169.7863 N.ar    1  UNL1       -0.2192
     10 C         141.1727  139.5850  166.0206 C.3     1  UNL1        0.0941
     11 N         141.8897  143.5474  162.8788 N.3     1  UNL1       -0.2727
     12 C         141.5883  142.1373  162.4651 C.3     1  UNL1        0.0721
     13 C         141.4559  141.3079  163.7078 C.3     1  UNL1        0.0191
     14 C         141.6753  142.2052  164.8897 C.3     1  UNL1        0.0191
     15 C         141.9434  143.5893  164.3773 C.3     1  UNL1        0.0721
     16 C         141.3832  140.7487  165.0979 C.3     1  UNL1        0.0226
     17 C         141.5035  144.6947  160.5801 C.3     1  UNL1        0.0188
     18 C         142.1002  144.7111  161.9561 C.3     1  UNL1        0.0721
     19 C         138.7476  138.7026  165.7204 C.3     1  UNL1        0.1206
     20 C         138.4242  139.3112  164.3880 C.ar    1  UNL1        0.0007
     21 C         138.5906  138.5043  163.1346 C.ar    1  UNL1       -0.0024
     22 C         138.2672  139.1129  161.8023 C.ar    1  UNL1        0.0028
     23 C         137.7774  140.5285  161.7234 C.ar    1  UNL1        0.0372
     24 C         137.6109  141.3354  162.9769 C.ar    1  UNL1        0.1465
     25 C         137.9343  140.7268  164.3092 C.ar    1  UNL1        0.0346
     26 O         137.1211  142.7510  162.8981 O.3     1  UNL1       -0.4045
     27 C         138.0408  143.8834  163.2473 C.3     1  UNL1        0.5753
     28 F         138.9604  145.0158  163.5965 F       1  UNL1       -0.1328
     29 F         138.7002  143.7617  161.9055 F       1  UNL1       -0.1328
     30 F         137.3814  144.0052  164.5891 F       1  UNL1       -0.1328
@<TRIPOS>BOND
     1    17    18    1
     2    18    11    1
     3    11    12    1
     4    13    12    1
     5    13    14    1
     6    14    15    1
     7    14    16    1
     8    16    10    1
     9    10     1    1
    10     1    19    1
    11    19    20    1
    12    20    21   ar
    13    21    22   ar
    14    22    23   ar
    15    23    24   ar
    16    24    26    1
    17    26    27    1
    18    27    28    1
    19    27    29    1
    20    27    30    1
    21    24    25   ar
    22     1     2   am
    23     2     3    2
    24     2     4    1
    25     4     5   ar
    26     5     6   ar
    27     6     7    1
    28     6     8   ar
    29     8     9   ar
    30    15    11    1
    31    25    20   ar
    32     9     4   ar
    33    16    13    1
@<TRIPOS>MOLECULE
*****
 30 33 0 0 0
SMALL
GASTEIGER

@<TRIPOS>ATOM
      1 N         141.6197  139.1109  166.1317 N.am    1  UNL1       -0.2707
      2 C         142.0571  139.3922  167.5387 C.2     1  UNL1        0.2686
      3 O         143.2884  138.7341  168.0871 O.2     1  UNL1       -0.2682
      4 C         141.2631  140.3317  168.3972 C.ar    1  UNL1        0.1535
      5 C         141.5037  141.8045  168.5484 C.ar    1  UNL1        0.1012
      6 N         140.4785  142.3463  169.4998 N.ar    1  UNL1       -0.3057
      7 C         140.3500  143.7753  169.9376 C.3     1  UNL1        0.1321
      8 C         139.6043  141.2084  169.9367 C.ar    1  UNL1        0.1787
      9 N         140.0893  139.9633  169.2552 N.ar    1  UNL1       -0.2192
     10 C         140.3885  139.7690  165.5832 C.3     1  UNL1        0.0941
     11 N         140.7180  144.3588  163.3674 N.3     1  UNL1       -0.2727
     12 C         139.5776  143.3938  163.2313 C.3     1  UNL1        0.0721
     13 C         139.8994  142.1777  164.0483 C.3     1  UNL1        0.0191
     14 C         141.2386  142.3910  164.6894 C.3     1  UNL1        0.0191
     15 C         141.7445  143.7391  164.2685 C.3     1  UNL1        0.0721
     16 C         140.4852  141.1170  164.9325 C.3     1  UNL1        0.0226
     17 C         139.7711  146.1400  161.7302 C.3     1  UNL1        0.0188
     18 C         140.8147  145.7068  162.7166 C.3     1  UNL1        0.0721
     19 C         142.4137  138.1714  165.2732 C.3     1  UNL1        0.1206
     20 C         142.9680  138.6415  163.9610 C.ar    1  UNL1        0.0007
     21 C         142.5418  137.9772  162.6855 C.ar    1  UNL1       -0.0024
     22 C         143.0961  138.4473  161.3733 C.ar    1  UNL1        0.0028
     23 C         144.0768  139.5817  161.3367 C.ar    1  UNL1        0.0372
     24 C         144.5030  140.2461  162.6123 C.ar    1  UNL1        0.1465
     25 C         143.9487  139.7760  163.9244 C.ar    1  UNL1        0.0346
     26 O         145.4837  141.3806  162.5757 O.3     1  UNL1       -0.4045
     27 C         144.9909  142.7965  162.5257 C.3     1  UNL1        0.5753
     28 F         144.4982  144.2124  162.4758 F       1  UNL1       -0.1328
     29 F         145.0226  142.8604  164.0241 F       1  UNL1       -0.1328
     30 F         144.9592  142.7327  161.0274 F       1  UNL1       -0.1328
@<TRIPOS>BOND
     1    17    18    1
     2    18    11    1
     3    11    12    1
     4    13    12    1
     5    13    14    1
     6    14    15    1
     7    14    16    1
     8    16    10    1
     9    10     1    1
    10     1    19    1
    11    19    20    1
    12    20    21   ar
    13    21    22   ar
    14    22    23   ar
    15    23    24   ar
    16    24    26    1
    17    26    27    1
    18    27    28    1
    19    27    29    1
    20    27    30    1
    21    24    25   ar
    22     1     2   am
    23     2     3    2
    24     2     4    1
    25     4     5   ar
    26     5     6   ar
    27     6     7    1
    28     6     8   ar
    29     8     9   ar
    30    15    11    1
    31    25    20   ar
    32     9     4   ar
    33    16    13    1
@<TRIPOS>MOLECULE
*****
 30 33 0 0 0
SMALL
GASTEIGER

@<TRIPOS>ATOM
      1 N         139.5733  139.9603  167.0340 N.am    1  UNL1       -0.2707
      2 C         139.6175  140.0298  168.5318 C.2     1  UNL1        0.2686
      3 O         138.4320  139.5894  169.3384 O.2     1  UNL1       -0.2682
      4 C         140.8472  140.5398  169.2230 C.ar    1  UNL1        0.1535
      5 C         141.1539  141.9753  169.5315 C.ar    1  UNL1        0.1012
      6 N         142.4823  142.0266  170.2261 N.ar    1  UNL1       -0.3057
      7 C         143.1749  143.2644  170.7143 C.3     1  UNL1        0.1321
      8 C         142.9967  140.6227  170.3469 C.ar    1  UNL1        0.1787
      9 N         141.9862  139.7039  169.7270 N.ar    1  UNL1       -0.2192
     10 C         140.7588  140.4007  166.2275 C.3     1  UNL1        0.0941
     11 N         140.5024  144.6670  163.4314 N.3     1  UNL1       -0.2727
     12 C         139.7625  144.4048  164.7097 C.3     1  UNL1        0.0721
     13 C         140.1336  143.0320  165.1868 C.3     1  UNL1        0.0191
     14 C         141.1029  142.4457  164.2034 C.3     1  UNL1        0.0191
     15 C         141.3307  143.4562  163.1185 C.3     1  UNL1        0.0721
     16 C         140.6835  141.6537  165.4063 C.3     1  UNL1        0.0226
     17 C         140.0264  145.8475  161.1665 C.3     1  UNL1        0.0188
     18 C         140.4270  145.9200  162.6102 C.3     1  UNL1        0.0721
     19 C         138.3436  139.4503  166.3429 C.3     1  UNL1        0.1206
     20 C         138.3699  139.1805  164.8675 C.ar    1  UNL1        0.0007
     21 C         138.9136  137.8809  164.3523 C.ar    1  UNL1       -0.0024
     22 C         138.9398  137.6111  162.8769 C.ar    1  UNL1        0.0028
     23 C         138.4224  138.6410  161.9169 C.ar    1  UNL1        0.0372
     24 C         137.8787  139.9406  162.4322 C.ar    1  UNL1        0.1465
     25 C         137.8524  140.2103  163.9075 C.ar    1  UNL1        0.0346
     26 O         137.3612  140.9704  161.4721 O.3     1  UNL1       -0.4045
     27 C         138.3010  141.9706  160.8667 C.3     1  UNL1        0.5753
     28 F         139.2407  142.9707  160.2613 F       1  UNL1       -0.1328
     29 F         137.9854  142.9356  161.9709 F       1  UNL1       -0.1328
     30 F         138.6166  141.0056  159.7625 F       1  UNL1       -0.1328
@<TRIPOS>BOND
     1    17    18    1
     2    18    11    1
     3    11    12    1
     4    13    12    1
     5    13    14    1
     6    14    15    1
     7    14    16    1
     8    16    10    1
     9    10     1    1
    10     1    19    1
    11    19    20    1
    12    20    21   ar
    13    21    22   ar
    14    22    23   ar
    15    23    24   ar
    16    24    26    1
    17    26    27    1
    18    27    28    1
    19    27    29    1
    20    27    30    1
    21    24    25   ar
    22     1     2   am
    23     2     3    2
    24     2     4    1
    25     4     5   ar
    26     5     6   ar
    27     6     7    1
    28     6     8   ar
    29     8     9   ar
    30    15    11    1
    31    25    20   ar
    32     9     4   ar
    33    16    13    1
@<TRIPOS>MOLECULE
*****
 30 33 0 0 0
SMALL
GASTEIGER

@<TRIPOS>ATOM
      1 N         142.8515  142.5247  163.7347 N.am    1  UNL1       -0.2707
      2 C         142.8835  143.9956  163.4424 C.2     1  UNL1        0.2686
      3 O         143.9399  144.8608  164.0631 O.2     1  UNL1       -0.2682
      4 C         141.8591  144.6012  162.5293 C.ar    1  UNL1        0.1535
      5 C         141.8604  144.5284  161.0310 C.ar    1  UNL1        0.1012
      6 N         140.6557  145.2681  160.5299 N.ar    1  UNL1       -0.3057
      7 C         140.2654  145.4465  159.0926 C.3     1  UNL1        0.1321
      8 C         139.9097  145.7982  161.7184 C.ar    1  UNL1        0.1787
      9 N         140.6534  145.3860  162.9540 N.ar    1  UNL1       -0.2192
     10 C         141.7951  141.6594  163.1140 C.3     1  UNL1        0.0941
     11 N         138.5153  139.1071  166.0828 N.3     1  UNL1       -0.2727
     12 C         138.8696  140.5595  166.2060 C.3     1  UNL1        0.0721
     13 C         139.8667  140.8860  165.1339 C.3     1  UNL1        0.0191
     14 C         140.1287  139.6354  164.3481 C.3     1  UNL1        0.0191
     15 C         139.2935  138.5359  164.9346 C.3     1  UNL1        0.0721
     16 C         140.8319  140.9099  163.9859 C.3     1  UNL1        0.0226
     17 C         137.4171  136.8700  166.8169 C.3     1  UNL1        0.0188
     18 C         137.5521  138.3575  166.9547 C.3     1  UNL1        0.0721
     19 C         143.8759  141.9190  164.6479 C.3     1  UNL1        0.1206
     20 C         143.4393  141.1083  165.8320 C.ar    1  UNL1        0.0007
     21 C         143.5021  139.6105  165.7797 C.ar    1  UNL1       -0.0024
     22 C         143.0655  138.7998  166.9639 C.ar    1  UNL1        0.0028
     23 C         142.5661  139.4868  168.2002 C.ar    1  UNL1        0.0372
     24 C         142.5034  140.9847  168.2525 C.ar    1  UNL1        0.1465
     25 C         142.9400  141.7953  167.0684 C.ar    1  UNL1        0.0346
     26 O         142.0041  141.6717  169.4888 O.3     1  UNL1       -0.4045
     27 C         141.1267  142.8828  169.3714 C.3     1  UNL1        0.5753
     28 F         140.2495  144.0938  169.2541 F       1  UNL1       -0.1328
     29 F         142.1982  143.7204  170.0043 F       1  UNL1       -0.1328
     30 F         140.0553  142.0453  168.7386 F       1  UNL1       -0.1328
@<TRIPOS>BOND
     1    17    18    1
     2    18    11    1
     3    11    12    1
     4    13    12    1
     5    13    14    1
     6    14    15    1
     7    14    16    1
     8    16    10    1
     9    10     1    1
    10     1    19    1
    11    19    20    1
    12    20    21   ar
    13    21    22   ar
    14    22    23   ar
    15    23    24   ar
    16    24    26    1
    17    26    27    1
    18    27    28    1
    19    27    29    1
    20    27    30    1
    21    24    25   ar
    22     1     2   am
    23     2     3    2
    24     2     4    1
    25     4     5   ar
    26     5     6   ar
    27     6     7    1
    28     6     8   ar
    29     8     9   ar
    30    15    11    1
    31    25    20   ar
    32     9     4   ar
    33    16    13    1
@<TRIPOS>MOLECULE
*****
 30 33 0 0 0
SMALL
GASTEIGER

@<TRIPOS>ATOM
      1 N         138.6587  142.3650  162.4289 N.am    1  UNL1       -0.2707
      2 C         138.8193  142.0784  160.9653 C.2     1  UNL1        0.2686
      3 O         137.9797  141.0212  160.3115 O.2     1  UNL1       -0.2682
      4 C         139.8194  142.8490  160.1554 C.ar    1  UNL1        0.1535
      5 C         141.2135  142.4064  159.8228 C.ar    1  UNL1        0.1012
      6 N         141.8567  143.4814  158.9979 N.ar    1  UNL1       -0.3057
      7 C         143.2516  143.4542  158.4469 C.3     1  UNL1        0.1321
      8 C         140.8602  144.5884  158.8207 C.ar    1  UNL1        0.1787
      9 N         139.6011  144.1976  159.5361 N.ar    1  UNL1       -0.2192
     10 C         139.4982  143.4222  163.0826 C.3     1  UNL1        0.0941
     11 N         142.1513  142.3263  167.3070 N.3     1  UNL1       -0.2727
     12 C         140.7515  142.8633  167.2594 C.3     1  UNL1        0.0721
     13 C         140.3701  143.0366  165.8191 C.3     1  UNL1        0.0191
     14 C         141.5342  142.6067  164.9764 C.3     1  UNL1        0.0191
     15 C         142.6351  142.1677  165.8960 C.3     1  UNL1        0.0721
     16 C         140.2774  143.1004  164.3233 C.3     1  UNL1        0.0226
     17 C         142.6630  142.7566  169.8175 C.3     1  UNL1        0.0188
     18 C         142.9305  142.0044  168.5476 C.3     1  UNL1        0.0721
     19 C         137.6585  141.5944  163.2387 C.3     1  UNL1        0.1206
     20 C         138.0677  140.3250  163.9253 C.ar    1  UNL1        0.0007
     21 C         138.5539  139.1585  163.1174 C.ar    1  UNL1       -0.0024
     22 C         138.9631  137.8891  163.8039 C.ar    1  UNL1        0.0028
     23 C         138.8860  137.7863  165.2984 C.ar    1  UNL1        0.0372
     24 C         138.3998  138.9529  166.1063 C.ar    1  UNL1        0.1465
     25 C         137.9906  140.2222  165.4198 C.ar    1  UNL1        0.0346
     26 O         138.3227  138.8501  167.6008 O.3     1  UNL1       -0.4045
     27 C         139.1533  139.7579  168.4589 C.3     1  UNL1        0.5753
     28 F         139.9839  140.6655  169.3168 F       1  UNL1       -0.1328
     29 F         140.2829  139.6519  167.4775 F       1  UNL1       -0.1328
     30 F         138.0239  139.8638  169.4402 F       1  UNL1       -0.1328
@<TRIPOS>BOND
     1    17    18    1
     2    18    11    1
     3    11    12    1
     4    13    12    1
     5    13    14    1
     6    14    15    1
     7    14    16    1
     8    16    10    1
     9    10     1    1
    10     1    19    1
    11    19    20    1
    12    20    21   ar
    13    21    22   ar
    14    22    23   ar
    15    23    24   ar
    16    24    26    1
    17    26    27    1
    18    27    28    1
    19    27    29    1
    20    27    30    1
    21    24    25   ar
    22     1     2   am
    23     2     3    2
    24     2     4    1
    25     4     5   ar
    26     5     6   ar
    27     6     7    1
    28     6     8   ar
    29     8     9   ar
    30    15    11    1
    31    25    20   ar
    32     9     4   ar
    33    16    13    1
@<TRIPOS>MOLECULE
*****
 30 33 0 0 0
SMALL
GASTEIGER

@<TRIPOS>ATOM
      1 N         140.0932  144.1250  163.5778 N.am    1  UNL1       -0.2707
      2 C         139.0938  144.3922  162.4915 C.2     1  UNL1        0.2686
      3 O         137.6419  144.5548  162.8316 O.2     1  UNL1       -0.2682
      4 C         139.5463  144.4967  161.0652 C.ar    1  UNL1        0.1535
      5 C         139.6494  143.3637  160.0876 C.ar    1  UNL1        0.1012
      6 N         140.1420  143.9194  158.7844 N.ar    1  UNL1       -0.3057
      7 C         140.3897  143.1361  157.5293 C.3     1  UNL1        0.1321
      8 C         140.3433  145.3958  158.9565 C.ar    1  UNL1        0.1787
      9 N         139.9752  145.7526  160.3661 N.ar    1  UNL1       -0.2192
     10 C         141.5450  143.9625  163.2377 C.3     1  UNL1        0.0941
     11 N         143.3432  139.3920  161.8367 N.3     1  UNL1       -0.2727
     12 C         144.0767  140.6967  161.7365 C.3     1  UNL1        0.0721
     13 C         143.1757  141.7764  162.2585 C.3     1  UNL1        0.0191
     14 C         141.8853  141.1391  162.6813 C.3     1  UNL1        0.0191
     15 C         141.9888  139.6654  162.4206 C.3     1  UNL1        0.0721
     16 C         142.0731  142.6202  162.8263 C.3     1  UNL1        0.0226
     17 C         143.1904  137.2784  160.3338 C.3     1  UNL1        0.0188
     18 C         143.8713  138.0498  161.4252 C.3     1  UNL1        0.0721
     19 C         139.6407  144.0205  165.0041 C.3     1  UNL1        0.1206
     20 C         139.6687  142.6943  165.7045 C.ar    1  UNL1        0.0007
     21 C         140.4364  142.5378  166.9836 C.ar    1  UNL1       -0.0024
     22 C         140.4644  141.2116  167.6841 C.ar    1  UNL1        0.0028
     23 C         139.7247  140.0421  167.1054 C.ar    1  UNL1        0.0372
     24 C         138.9570  140.1986  165.8262 C.ar    1  UNL1        0.1465
     25 C         138.9290  141.5247  165.1258 C.ar    1  UNL1        0.0346
     26 O         138.2173  139.0290  165.2475 O.3     1  UNL1       -0.4045
     27 C         138.8657  138.1768  164.1971 C.3     1  UNL1        0.5753
     28 F         139.5141  137.3246  163.1467 F       1  UNL1       -0.1328
     29 F         138.3466  139.0957  163.1311 F       1  UNL1       -0.1328
     30 F         139.3849  137.2579  165.2630 F       1  UNL1       -0.1328
@<TRIPOS>BOND
     1    17    18    1
     2    18    11    1
     3    11    12    1
     4    13    12    1
     5    13    14    1
     6    14    15    1
     7    14    16    1
     8    16    10    1
     9    10     1    1
    10     1    19    1
    11    19    20    1
    12    20    21   ar
    13    21    22   ar
    14    22    23   ar
    15    23    24   ar
    16    24    26    1
    17    26    27    1
    18    27    28    1
    19    27    29    1
    20    27    30    1
    21    24    25   ar
    22     1     2   am
    23     2     3    2
    24     2     4    1
    25     4     5   ar
    26     5     6   ar
    27     6     7    1
    28     6     8   ar
    29     8     9   ar
    30    15    11    1
    31    25    20   ar
    32     9     4   ar
    33    16    13    1
@<TRIPOS>MOLECULE
*****
 30 33 0 0 0
SMALL
GASTEIGER

@<TRIPOS>ATOM
      1 N         138.9501  140.5406  166.1372 N.am    1  UNL1       -0.2707
      2 C         138.8889  139.5847  167.2916 C.2     1  UNL1        0.2686
      3 O         138.0323  138.3565  167.2037 O.2     1  UNL1       -0.2682
      4 C         139.6842  139.8571  168.5339 C.ar    1  UNL1        0.1535
      5 C         141.1800  139.8417  168.6442 C.ar    1  UNL1        0.1012
      6 N         141.5436  140.1678  170.0624 N.ar    1  UNL1       -0.3057
      7 C         142.9342  140.2607  170.6171 C.3     1  UNL1        0.1321
      8 C         140.2724  140.3849  170.8286 C.ar    1  UNL1        0.1787
      9 N         139.1233  140.1929  169.8839 N.ar    1  UNL1       -0.2192
     10 C         139.8066  141.7689  166.2251 C.3     1  UNL1        0.0941
     11 N         139.9979  145.0347  162.3030 N.3     1  UNL1       -0.2727
     12 C         138.7742  144.6765  163.0932 C.3     1  UNL1        0.0721
     13 C         139.1756  143.6857  164.1455 C.3     1  UNL1        0.0191
     14 C         140.6473  143.4316  164.0058 C.3     1  UNL1        0.0191
     15 C         141.1555  144.2654  162.8670 C.3     1  UNL1        0.0721
     16 C         139.8628  142.7280  165.0732 C.3     1  UNL1        0.0226
     17 C         140.2501  145.4795  159.7558 C.3     1  UNL1        0.0188
     18 C         140.0541  145.9939  161.1512 C.3     1  UNL1        0.0721
     19 C         138.1548  140.2682  164.8949 C.3     1  UNL1        0.1206
     20 C         138.7832  139.5332  163.7482 C.ar    1  UNL1        0.0007
     21 C         138.0230  139.3494  162.4682 C.ar    1  UNL1       -0.0024
     22 C         138.6514  138.6144  161.3215 C.ar    1  UNL1        0.0028
     23 C         140.0401  138.0632  161.4548 C.ar    1  UNL1        0.0372
     24 C         140.8003  138.2470  162.7348 C.ar    1  UNL1        0.1465
     25 C         140.1719  138.9820  163.8814 C.ar    1  UNL1        0.0346
     26 O         142.1890  137.6958  162.8681 O.3     1  UNL1       -0.4045
     27 C         143.3470  138.6245  163.0840 C.3     1  UNL1        0.5753
     28 F         144.5050  139.5531  163.3000 F       1  UNL1       -0.1328
     29 F         143.3215  138.3150  164.5516 F       1  UNL1       -0.1328
     30 F         143.3726  138.9340  161.6165 F       1  UNL1       -0.1328
@<TRIPOS>BOND
     1    17    18    1
     2    18    11    1
     3    11    12    1
     4    13    12    1
     5    13    14    1
     6    14    15    1
     7    14    16    1
     8    16    10    1
     9    10     1    1
    10     1    19    1
    11    19    20    1
    12    20    21   ar
    13    21    22   ar
    14    22    23   ar
    15    23    24   ar
    16    24    26    1
    17    26    27    1
    18    27    28    1
    19    27    29    1
    20    27    30    1
    21    24    25   ar
    22     1     2   am
    23     2     3    2
    24     2     4    1
    25     4     5   ar
    26     5     6   ar
    27     6     7    1
    28     6     8   ar
    29     8     9   ar
    30    15    11    1
    31    25    20   ar
    32     9     4   ar
    33    16    13    1
@<TRIPOS>MOLECULE
*****
 30 33 0 0 0
SMALL
GASTEIGER

@<TRIPOS>ATOM
      1 N         143.2147  141.0789  165.9205 N.am    1  UNL1       -0.2707
      2 C         142.8154  140.4417  167.2185 C.2     1  UNL1        0.2686
      3 O         142.8341  138.9483  167.3579 O.2     1  UNL1       -0.2682
      4 C         142.3973  141.2979  168.3769 C.ar    1  UNL1        0.1535
      5 C         140.9863  141.6141  168.7757 C.ar    1  UNL1        0.1012
      6 N         141.0337  142.4999  169.9852 N.ar    1  UNL1       -0.3057
      7 C         139.8488  143.0567  170.7174 C.3     1  UNL1        0.1321
      8 C         142.4742  142.7312  170.3340 C.ar    1  UNL1        0.1787
      9 N         143.3168  141.9884  169.3401 N.ar    1  UNL1       -0.2192
     10 C         143.1960  142.5722  165.7811 C.3     1  UNL1        0.0941
     11 N         141.0404  144.7275  161.6831 N.3     1  UNL1       -0.2727
     12 C         141.8344  143.4549  161.6951 C.3     1  UNL1        0.0721
     13 C         142.2754  143.1968  163.1054 C.3     1  UNL1        0.0191
     14 C         141.7539  144.3099  163.9651 C.3     1  UNL1        0.0191
     15 C         140.9906  145.2559  163.0861 C.3     1  UNL1        0.0721
     16 C         142.5629  143.2052  164.5776 C.3     1  UNL1        0.0226
     17 C         140.6263  144.7690  159.1187 C.3     1  UNL1        0.0188
     18 C         140.4073  145.3605  160.4796 C.3     1  UNL1        0.0721
     19 C         143.6328  140.2226  164.7621 C.3     1  UNL1        0.1206
     20 C         142.6079  139.4275  164.0087 C.ar    1  UNL1        0.0007
     21 C         143.0222  138.5905  162.8350 C.ar    1  UNL1       -0.0024
     22 C         141.9973  137.7954  162.0817 C.ar    1  UNL1        0.0028
     23 C         140.5580  137.8374  162.5022 C.ar    1  UNL1        0.0372
     24 C         140.1437  138.6745  163.6760 C.ar    1  UNL1        0.1465
     25 C         141.1686  139.4695  164.4292 C.ar    1  UNL1        0.0346
     26 O         138.7045  138.7164  164.0965 O.3     1  UNL1       -0.4045
     27 C         138.3361  138.4936  165.5334 C.3     1  UNL1        0.5753
     28 F         137.9678  138.2709  166.9703 F       1  UNL1       -0.1328
     29 F         137.7943  139.8903  165.6111 F       1  UNL1       -0.1328
     30 F         138.8779  137.0971  165.4558 F       1  UNL1       -0.1328
@<TRIPOS>BOND
     1    17    18    1
     2    18    11    1
     3    11    12    1
     4    13    12    1
     5    13    14    1
     6    14    15    1
     7    14    16    1
     8    16    10    1
     9    10     1    1
    10     1    19    1
    11    19    20    1
    12    20    21   ar
    13    21    22   ar
    14    22    23   ar
    15    23    24   ar
    16    24    26    1
    17    26    27    1
    18    27    28    1
    19    27    29    1
    20    27    30    1
    21    24    25   ar
    22     1     2   am
    23     2     3    2
    24     2     4    1
    25     4     5   ar
    26     5     6   ar
    27     6     7    1
    28     6     8   ar
    29     8     9   ar
    30    15    11    1
    31    25    20   ar
    32     9     4   ar
    33    16    13    1
@<TRIPOS>MOLECULE
*****
 30 33 0 0 0
SMALL
GASTEIGER

@<TRIPOS>ATOM
      1 N         140.3125  144.3041  163.3102 N.am    1  UNL1       -0.2707
      2 C         139.3783  144.5287  162.1582 C.2     1  UNL1        0.2686
      3 O         137.9211  144.7775  162.4118 O.2     1  UNL1       -0.2682
      4 C         139.9016  144.5044  160.7526 C.ar    1  UNL1        0.1535
      5 C         140.7580  145.5563  160.1123 C.ar    1  UNL1        0.1012
      6 N         141.0459  145.1260  158.7046 N.ar    1  UNL1       -0.3057
      7 C         141.8680  145.8811  157.7025 C.3     1  UNL1        0.1321
      8 C         140.3675  143.8081  158.4748 C.ar    1  UNL1        0.1787
      9 N         139.6602  143.4240  159.7405 N.ar    1  UNL1       -0.2192
     10 C         141.7698  144.0552  163.0566 C.3     1  UNL1        0.0941
     11 N         143.9950  139.8352  164.8800 N.3     1  UNL1       -0.2727
     12 C         142.5192  140.0613  164.7344 C.3     1  UNL1        0.0721
     13 C         142.3146  141.4319  164.1605 C.3     1  UNL1        0.0191
     14 C         143.6639  142.0530  163.9513 C.3     1  UNL1        0.0191
     15 C         144.7024  141.0662  164.3960 C.3     1  UNL1        0.0721
     16 C         142.4233  142.8158  163.5921 C.3     1  UNL1        0.0226
     17 C         144.0451  137.8751  166.5845 C.3     1  UNL1        0.0188
     18 C         144.6485  138.5958  165.4155 C.3     1  UNL1        0.0721
     19 C         139.7893  144.3283  164.7158 C.3     1  UNL1        0.1206
     20 C         139.7255  143.0600  165.5143 C.ar    1  UNL1        0.0007
     21 C         140.4641  142.9552  166.8156 C.ar    1  UNL1       -0.0024
     22 C         140.4003  141.6869  167.6141 C.ar    1  UNL1        0.0028
     23 C         139.5979  140.5236  167.1112 C.ar    1  UNL1        0.0372
     24 C         138.8593  140.6285  165.8099 C.ar    1  UNL1        0.1465
     25 C         138.9231  141.8967  165.0114 C.ar    1  UNL1        0.0346
     26 O         138.0569  139.4652  165.3070 O.3     1  UNL1       -0.4045
     27 C         138.0608  138.1691  166.0621 C.3     1  UNL1        0.5753
     28 F         138.0647  136.8730  166.8171 F       1  UNL1       -0.1328
     29 F         138.9843  137.5762  165.0395 F       1  UNL1       -0.1328
     30 F         137.1372  138.7619  167.0846 F       1  UNL1       -0.1328
@<TRIPOS>BOND
     1    17    18    1
     2    18    11    1
     3    11    12    1
     4    13    12    1
     5    13    14    1
     6    14    15    1
     7    14    16    1
     8    16    10    1
     9    10     1    1
    10     1    19    1
    11    19    20    1
    12    20    21   ar
    13    21    22   ar
    14    22    23   ar
    15    23    24   ar
    16    24    26    1
    17    26    27    1
    18    27    28    1
    19    27    29    1
    20    27    30    1
    21    24    25   ar
    22     1     2   am
    23     2     3    2
    24     2     4    1
    25     4     5   ar
    26     5     6   ar
    27     6     7    1
    28     6     8   ar
    29     8     9   ar
    30    15    11    1
    31    25    20   ar
    32     9     4   ar
    33    16    13    1
