@<TRIPOS>MOLECULE
*****
 32 35 0 0 0
SMALL
GASTEIGER

@<TRIPOS>ATOM
      1 C         138.1236  139.7761  162.2745 C.ar    1  UNL1        0.1638
      2 C         137.7666  141.2148  162.0442 C.ar    1  UNL1        0.0727
      3 C         137.8792  142.2042  163.1658 C.ar    1  UNL1        0.1333
      4 N         138.3490  141.7552  164.5178 N.ar    1  UNL1       -0.2103
      5 C         138.7061  140.3167  164.7480 C.ar    1  UNL1        0.1890
      6 C         138.5934  139.3271  163.6264 C.ar    1  UNL1        0.1740
      7 N         139.0126  137.9849  164.1485 N.ar    1  UNL1       -0.1237
      8 N         139.3843  138.1449  165.5929 N.ar    1  UNL1       -0.0581
      9 N         139.1949  139.5860  165.9634 N.ar    1  UNL1       -0.1927
     10 C         139.4496  140.1903  167.3125 C.ar    1  UNL1        0.0891
     11 C         138.6764  139.7132  168.5060 C.ar    1  UNL1        0.0195
     12 C         138.9310  140.3175  169.8552 C.ar    1  UNL1        0.0047
     13 C         139.9588  141.3988  170.0106 C.ar    1  UNL1        0.0373
     14 C         140.7320  141.8759  168.8170 C.ar    1  UNL1        0.1483
     15 C         140.4774  141.2717  167.4680 C.ar    1  UNL1        0.0564
     16 O         141.7598  142.9573  168.9726 O.3     1  UNL1       -0.4044
     17 C         143.1277  142.6232  169.4895 C.3     1  UNL1        0.5753
     18 F         144.4957  142.2892  170.0064 F       1  UNL1       -0.1328
     19 F         143.5911  142.3529  168.0887 F       1  UNL1       -0.1328
     20 F         142.6644  142.8936  170.8903 F       1  UNL1       -0.1328
     21 C         139.2212  138.4328  160.3403 C.3     1  UNL1        0.2525
     22 O         138.0109  138.7866  161.1527 O.3     1  UNL1       -0.4696
     23 N         137.5222  143.6429  162.9356 N.pl3   1  UNL1       -0.3180
     24 H         136.6602  143.8759  162.5209 H       1  UNL1        0.1482
     25 C         138.4785  144.7264  163.3373 C.3     1  UNL1        0.0882
     26 C         139.8682  144.7473  162.7731 C.3     1  UNL1        0.0223
     27 C         141.0519  144.7343  163.6944 C.3     1  UNL1        0.0188
     28 C         142.4416  144.7552  163.1302 C.3     1  UNL1        0.0686
     29 N         142.6476  144.7890  161.6448 N.3     1  UNL1       -0.2975
     30 C         141.4639  144.8020  160.7236 C.3     1  UNL1        0.0686
     31 C         140.0742  144.7811  161.2877 C.3     1  UNL1        0.0188
     32 H         143.1982  143.9646  161.4051 H       1  UNL1        0.1232
@<TRIPOS>BOND
     1    21    22    1
     2    22     1    1
     3     1     2   ar
     4     2     3   ar
     5     3    23    1
     6    23    25    1
     7    25    26    1
     8    26    27    1
     9    27    28    1
    10    28    29    1
    11    29    30    1
    12    30    31    1
    13     3     4   ar
    14     4     5   ar
    15     5     6   ar
    16     6     7   ar
    17     7     8   ar
    18     8     9   ar
    19     9    10    1
    20    10    11   ar
    21    11    12   ar
    22    12    13   ar
    23    13    14   ar
    24    14    16    1
    25    16    17    1
    26    17    18    1
    27    17    19    1
    28    17    20    1
    29    14    15   ar
    30     6     1   ar
    31    15    10   ar
    32    31    26    1
    33     9     5   ar
    34    23    24    1
    35    29    32    1
@<TRIPOS>MOLECULE
*****
 32 35 0 0 0
SMALL
GASTEIGER

@<TRIPOS>ATOM
      1 C         140.6832  140.0593  168.7300 C.ar    1  UNL1        0.1638
      2 C         141.8929  140.8544  168.3368 C.ar    1  UNL1        0.0727
      3 C         142.0456  141.3391  166.9256 C.ar    1  UNL1        0.1333
      4 N         140.9887  141.0289  165.9075 N.ar    1  UNL1       -0.2103
      5 C         139.7790  140.2338  166.3006 C.ar    1  UNL1        0.1890
      6 C         139.6263  139.7490  167.7119 C.ar    1  UNL1        0.1740
      7 N         138.3345  138.9923  167.8049 N.ar    1  UNL1       -0.1237
      8 N         137.6889  139.0094  166.4511 N.ar    1  UNL1       -0.0581
      9 N         138.5816  139.7767  165.5214 N.ar    1  UNL1       -0.1927
     10 C         138.3224  140.0405  164.0677 C.ar    1  UNL1        0.0891
     11 C         138.2488  138.8972  163.0995 C.ar    1  UNL1        0.0195
     12 C         137.9896  139.1610  161.6457 C.ar    1  UNL1        0.0047
     13 C         137.8040  140.5680  161.1603 C.ar    1  UNL1        0.0373
     14 C         137.8776  141.7113  162.1286 C.ar    1  UNL1        0.1483
     15 C         138.1368  141.4476  163.5822 C.ar    1  UNL1        0.0564
     16 O         137.6920  143.1184  161.6430 O.3     1  UNL1       -0.4044
     17 C         138.4056  144.2476  162.3253 C.3     1  UNL1        0.5753
     18 F         139.1192  145.3769  163.0077 F       1  UNL1       -0.1328
     19 F         137.1657  144.5565  163.1109 F       1  UNL1       -0.1328
     20 F         139.6456  143.9388  161.5398 F       1  UNL1       -0.1328
     21 C         140.6326  140.5430  171.2822 C.3     1  UNL1        0.2525
     22 O         140.5306  139.5745  170.1413 O.3     1  UNL1       -0.4696
     23 N         143.2553  142.1342  166.5324 N.pl3   1  UNL1       -0.3180
     24 H         143.6438  142.7835  167.1623 H       1  UNL1        0.1482
     25 C         143.8731  141.9400  165.1794 C.3     1  UNL1        0.0882
     26 C         143.5210  142.8672  164.0541 C.3     1  UNL1        0.0223
     27 C         142.7480  144.1227  164.3306 C.3     1  UNL1        0.0188
     28 C         142.3959  145.0498  163.2052 C.3     1  UNL1        0.0686
     29 N         142.8168  144.7216  161.8035 N.3     1  UNL1       -0.2975
     30 C         143.5897  143.4662  161.5269 C.3     1  UNL1        0.0686
     31 C         143.9418  142.5390  162.6522 C.3     1  UNL1        0.0188
     32 H         143.3919  145.4990  161.4791 H       1  UNL1        0.1232
@<TRIPOS>BOND
     1    21    22    1
     2    22     1    1
     3     1     2   ar
     4     2     3   ar
     5     3    23    1
     6    23    25    1
     7    25    26    1
     8    26    27    1
     9    27    28    1
    10    28    29    1
    11    29    30    1
    12    30    31    1
    13     3     4   ar
    14     4     5   ar
    15     5     6   ar
    16     6     7   ar
    17     7     8   ar
    18     8     9   ar
    19     9    10    1
    20    10    11   ar
    21    11    12   ar
    22    12    13   ar
    23    13    14   ar
    24    14    16    1
    25    16    17    1
    26    17    18    1
    27    17    19    1
    28    17    20    1
    29    14    15   ar
    30     6     1   ar
    31    15    10   ar
    32    31    26    1
    33     9     5   ar
    34    23    24    1
    35    29    32    1
@<TRIPOS>MOLECULE
*****
 32 35 0 0 0
SMALL
GASTEIGER

@<TRIPOS>ATOM
      1 C         140.1891  144.5207  161.1253 C.ar    1  UNL1        0.1638
      2 C         141.6227  144.7414  161.5075 C.ar    1  UNL1        0.0727
      3 C         142.1868  144.0686  162.7236 C.ar    1  UNL1        0.1333
      4 N         141.3174  143.1749  163.5575 N.ar    1  UNL1       -0.2103
      5 C         139.8838  142.9542  163.1754 C.ar    1  UNL1        0.1890
      6 C         139.3196  143.6271  161.9592 C.ar    1  UNL1        0.1740
      7 N         137.8807  143.2231  161.8314 N.ar    1  UNL1       -0.1237
      8 N         137.5556  142.3006  162.9686 N.ar    1  UNL1       -0.0581
      9 N         138.7935  142.1344  163.7992 N.ar    1  UNL1       -0.1927
     10 C         138.9191  141.2956  165.0364 C.ar    1  UNL1        0.0891
     11 C         138.1212  140.0325  165.1704 C.ar    1  UNL1        0.0195
     12 C         138.2468  139.1937  166.4076 C.ar    1  UNL1        0.0047
     13 C         139.1703  139.6179  167.5108 C.ar    1  UNL1        0.0373
     14 C         139.9682  140.8811  167.3768 C.ar    1  UNL1        0.1483
     15 C         139.8427  141.7199  166.1396 C.ar    1  UNL1        0.0564
     16 O         140.8917  141.3053  168.4800 O.3     1  UNL1       -0.4044
     17 C         140.7660  142.6750  169.0785 C.3     1  UNL1        0.5753
     18 F         140.6403  144.0446  169.6769 F       1  UNL1       -0.1328
     19 F         142.0644  143.0726  168.4411 F       1  UNL1       -0.1328
     20 F         139.4677  142.2773  169.7158 F       1  UNL1       -0.1328
     21 C         140.4990  145.4406  158.7153 C.3     1  UNL1        0.2525
     22 O         139.6250  145.1936  159.9091 O.3     1  UNL1       -0.4696
     23 N         143.6205  144.2893  163.1058 N.pl3   1  UNL1       -0.3180
     24 H         143.8537  144.9870  163.7601 H       1  UNL1        0.1482
     25 C         144.6987  143.4469  162.4912 C.3     1  UNL1        0.0882
     26 C         144.6713  141.9562  162.6560 C.3     1  UNL1        0.0223
     27 C         144.1795  141.0869  161.5368 C.3     1  UNL1        0.0188
     28 C         144.1521  139.5962  161.7016 C.3     1  UNL1        0.0686
     29 N         144.6165  138.9749  162.9854 N.3     1  UNL1       -0.2975
     30 C         145.1083  139.8442  164.1045 C.3     1  UNL1        0.0686
     31 C         145.1357  141.3349  163.9398 C.3     1  UNL1        0.0188
     32 H         145.3799  138.3419  162.7469 H       1  UNL1        0.1232
@<TRIPOS>BOND
     1    21    22    1
     2    22     1    1
     3     1     2   ar
     4     2     3   ar
     5     3    23    1
     6    23    25    1
     7    25    26    1
     8    26    27    1
     9    27    28    1
    10    28    29    1
    11    29    30    1
    12    30    31    1
    13     3     4   ar
    14     4     5   ar
    15     5     6   ar
    16     6     7   ar
    17     7     8   ar
    18     8     9   ar
    19     9    10    1
    20    10    11   ar
    21    11    12   ar
    22    12    13   ar
    23    13    14   ar
    24    14    16    1
    25    16    17    1
    26    17    18    1
    27    17    19    1
    28    17    20    1
    29    14    15   ar
    30     6     1   ar
    31    15    10   ar
    32    31    26    1
    33     9     5   ar
    34    23    24    1
    35    29    32    1
@<TRIPOS>MOLECULE
*****
 32 35 0 0 0
SMALL
GASTEIGER

@<TRIPOS>ATOM
      1 C         137.8424  141.1481  162.5376 C.ar    1  UNL1        0.1638
      2 C         137.9871  142.6378  162.6384 C.ar    1  UNL1        0.0727
      3 C         138.7920  143.2395  163.7519 C.ar    1  UNL1        0.1333
      4 N         139.4522  142.3517  164.7647 N.ar    1  UNL1       -0.2103
      5 C         139.3076  140.8621  164.6640 C.ar    1  UNL1        0.1890
      6 C         138.5027  140.2603  163.5504 C.ar    1  UNL1        0.1740
      7 N         138.5371  138.7689  163.7071 N.ar    1  UNL1       -0.1237
      8 N         139.3632  138.4490  164.9175 N.ar    1  UNL1       -0.0581
      9 N         139.8394  139.7426  165.5089 N.ar    1  UNL1       -0.1927
     10 C         140.6969  139.8907  166.7307 C.ar    1  UNL1        0.0891
     11 C         142.0303  139.2070  166.7985 C.ar    1  UNL1        0.0195
     12 C         142.8879  139.3551  168.0204 C.ar    1  UNL1        0.0047
     13 C         142.4120  140.1869  169.1742 C.ar    1  UNL1        0.0373
     14 C         141.0786  140.8706  169.1064 C.ar    1  UNL1        0.1483
     15 C         140.2210  140.7226  167.8847 C.ar    1  UNL1        0.0564
     16 O         140.6028  141.7024  170.2604 O.3     1  UNL1       -0.4044
     17 C         140.4135  143.1808  170.0917 C.3     1  UNL1        0.5753
     18 F         140.2241  144.6593  169.9230 F       1  UNL1       -0.1328
     19 F         139.1275  143.1038  170.8600 F       1  UNL1       -0.1328
     20 F         141.6995  143.2579  169.3234 F       1  UNL1       -0.1328
     21 C         137.7284  139.8331  160.2998 C.3     1  UNL1        0.2525
     22 O         137.0375  140.5464  161.4240 O.3     1  UNL1       -0.4696
     23 N         138.9366  144.7291  163.8527 N.pl3   1  UNL1       -0.3180
     24 H         138.4514  145.2247  164.5514 H       1  UNL1        0.1482
     25 C         139.8206  145.4637  162.8889 C.3     1  UNL1        0.0882
     26 C         141.2323  145.0069  162.6684 C.3     1  UNL1        0.0223
     27 C         142.3012  145.3704  163.6561 C.3     1  UNL1        0.0188
     28 C         143.7128  144.9136  163.4355 C.3     1  UNL1        0.0686
     29 N         144.0556  144.0935  162.2273 N.3     1  UNL1       -0.2975
     30 C         142.9868  143.7300  161.2396 C.3     1  UNL1        0.0686
     31 C         141.5751  144.1868  161.4601 C.3     1  UNL1        0.0188
     32 H         144.4512  143.2175  162.5687 H       1  UNL1        0.1232
@<TRIPOS>BOND
     1    21    22    1
     2    22     1    1
     3     1     2   ar
     4     2     3   ar
     5     3    23    1
     6    23    25    1
     7    25    26    1
     8    26    27    1
     9    27    28    1
    10    28    29    1
    11    29    30    1
    12    30    31    1
    13     3     4   ar
    14     4     5   ar
    15     5     6   ar
    16     6     7   ar
    17     7     8   ar
    18     8     9   ar
    19     9    10    1
    20    10    11   ar
    21    11    12   ar
    22    12    13   ar
    23    13    14   ar
    24    14    16    1
    25    16    17    1
    26    17    18    1
    27    17    19    1
    28    17    20    1
    29    14    15   ar
    30     6     1   ar
    31    15    10   ar
    32    31    26    1
    33     9     5   ar
    34    23    24    1
    35    29    32    1
@<TRIPOS>MOLECULE
*****
 32 35 0 0 0
SMALL
GASTEIGER

@<TRIPOS>ATOM
      1 C         140.8223  138.2520  162.7664 C.ar    1  UNL1        0.1638
      2 C         142.3123  138.4137  162.8278 C.ar    1  UNL1        0.0727
      3 C         142.9512  139.0240  164.0399 C.ar    1  UNL1        0.1333
      4 N         142.1002  139.4726  165.1907 N.ar    1  UNL1       -0.2103
      5 C         140.6102  139.3110  165.1294 C.ar    1  UNL1        0.1890
      6 C         139.9712  138.7007  163.9172 C.ar    1  UNL1        0.1740
      7 N         138.4883  138.6696  164.1408 N.ar    1  UNL1       -0.1237
      8 N         138.2108  139.2608  165.4912 N.ar    1  UNL1       -0.0581
      9 N         139.5221  139.6571  166.1022 N.ar    1  UNL1       -0.1927
     10 C         139.7121  140.2888  167.4494 C.ar    1  UNL1        0.0891
     11 C         138.8763  139.8415  168.6119 C.ar    1  UNL1        0.0195
     12 C         139.0662  140.4731  169.9592 C.ar    1  UNL1        0.0047
     13 C         140.0919  141.5519  170.1439 C.ar    1  UNL1        0.0373
     14 C         140.9276  141.9992  168.9812 C.ar    1  UNL1        0.1483
     15 C         140.7377  141.3676  167.6341 C.ar    1  UNL1        0.0564
     16 O         141.9533  143.0780  169.1660 O.3     1  UNL1       -0.4044
     17 C         143.3382  142.7262  169.6223 C.3     1  UNL1        0.5753
     18 F         144.7231  142.3744  170.0785 F       1  UNL1       -0.1328
     19 F         142.9536  143.0463  171.0364 F       1  UNL1       -0.1328
     20 F         143.7227  142.4061  168.2082 F       1  UNL1       -0.1328
     21 C         139.2916  138.4711  160.6785 C.3     1  UNL1        0.2525
     22 O         140.1834  137.6417  161.5542 O.3     1  UNL1       -0.4696
     23 N         144.4413  139.1856  164.1013 N.pl3   1  UNL1       -0.3180
     24 H         145.0285  138.4380  163.8454 H       1  UNL1        0.1482
     25 C         145.0365  140.4864  164.5525 C.3     1  UNL1        0.0882
     26 C         144.6981  141.7567  163.8301 C.3     1  UNL1        0.0223
     27 C         144.9484  141.8703  162.3554 C.3     1  UNL1        0.0188
     28 C         144.6099  143.1407  161.6331 C.3     1  UNL1        0.0686
     29 N         144.0213  144.2972  162.3852 N.3     1  UNL1       -0.2975
     30 C         143.7711  144.1836  163.8598 C.3     1  UNL1        0.0686
     31 C         144.1095  142.9133  164.5822 C.3     1  UNL1        0.0188
     32 H         143.1230  144.5054  161.9492 H       1  UNL1        0.1232
@<TRIPOS>BOND
     1    21    22    1
     2    22     1    1
     3     1     2   ar
     4     2     3   ar
     5     3    23    1
     6    23    25    1
     7    25    26    1
     8    26    27    1
     9    27    28    1
    10    28    29    1
    11    29    30    1
    12    30    31    1
    13     3     4   ar
    14     4     5   ar
    15     5     6   ar
    16     6     7   ar
    17     7     8   ar
    18     8     9   ar
    19     9    10    1
    20    10    11   ar
    21    11    12   ar
    22    12    13   ar
    23    13    14   ar
    24    14    16    1
    25    16    17    1
    26    17    18    1
    27    17    19    1
    28    17    20    1
    29    14    15   ar
    30     6     1   ar
    31    15    10   ar
    32    31    26    1
    33     9     5   ar
    34    23    24    1
    35    29    32    1
@<TRIPOS>MOLECULE
*****
 32 35 0 0 0
SMALL
GASTEIGER

@<TRIPOS>ATOM
      1 C         139.5029  143.5911  161.5627 C.ar    1  UNL1        0.1638
      2 C         138.4571  142.5261  161.4141 C.ar    1  UNL1        0.0727
      3 C         138.3975  141.3915  162.3934 C.ar    1  UNL1        0.1333
      4 N         139.3838  141.3219  163.5214 N.ar    1  UNL1       -0.2103
      5 C         140.4296  142.3868  163.6701 C.ar    1  UNL1        0.1890
      6 C         140.4892  143.5214  162.6907 C.ar    1  UNL1        0.1740
      7 N         141.6234  144.4185  163.0890 N.ar    1  UNL1       -0.1237
      8 N         142.2648  143.8384  164.3146 N.ar    1  UNL1       -0.0581
      9 N         141.5270  142.5827  164.6737 N.ar    1  UNL1       -0.1927
     10 C         141.8330  141.6813  165.8329 C.ar    1  UNL1        0.0891
     11 C         142.4249  140.3243  165.5919 C.ar    1  UNL1        0.0195
     12 C         142.7309  139.4228  166.7511 C.ar    1  UNL1        0.0047
     13 C         142.4449  139.8783  168.1513 C.ar    1  UNL1        0.0373
     14 C         141.8529  141.2354  168.3923 C.ar    1  UNL1        0.1483
     15 C         141.5469  142.1368  167.2332 C.ar    1  UNL1        0.0564
     16 O         141.5669  141.6908  169.7926 O.3     1  UNL1       -0.4044
     17 C         140.9792  143.0496  170.0341 C.3     1  UNL1        0.5753
     18 F         140.3916  144.4084  170.2757 F       1  UNL1       -0.1328
     19 F         142.3592  143.6322  170.1137 F       1  UNL1       -0.1328
     20 F         139.5993  142.4670  169.9545 F       1  UNL1       -0.1328
     21 C         140.6640  144.7819  159.5667 C.3     1  UNL1        0.2525
     22 O         139.5625  144.7256  160.5832 O.3     1  UNL1       -0.4696
     23 N         137.3516  140.3265  162.2448 N.pl3   1  UNL1       -0.3180
     24 H         136.4202  140.5116  162.5045 H       1  UNL1        0.1482
     25 C         137.7250  138.9796  161.7005 C.3     1  UNL1        0.0882
     26 C         139.0937  138.4210  161.9549 C.3     1  UNL1        0.0223
     27 C         140.1673  138.5651  160.9172 C.3     1  UNL1        0.0188
     28 C         141.5359  138.0065  161.1716 C.3     1  UNL1        0.0686
     29 N         141.8310  137.3039  162.4635 N.3     1  UNL1       -0.2975
     30 C         140.7575  137.1598  163.5012 C.3     1  UNL1        0.0686
     31 C         139.3888  137.7183  163.2468 C.3     1  UNL1        0.0188
     32 H         142.6004  137.8083  162.9040 H       1  UNL1        0.1232
@<TRIPOS>BOND
     1    21    22    1
     2    22     1    1
     3     1     2   ar
     4     2     3   ar
     5     3    23    1
     6    23    25    1
     7    25    26    1
     8    26    27    1
     9    27    28    1
    10    28    29    1
    11    29    30    1
    12    30    31    1
    13     3     4   ar
    14     4     5   ar
    15     5     6   ar
    16     6     7   ar
    17     7     8   ar
    18     8     9   ar
    19     9    10    1
    20    10    11   ar
    21    11    12   ar
    22    12    13   ar
    23    13    14   ar
    24    14    16    1
    25    16    17    1
    26    17    18    1
    27    17    19    1
    28    17    20    1
    29    14    15   ar
    30     6     1   ar
    31    15    10   ar
    32    31    26    1
    33     9     5   ar
    34    23    24    1
    35    29    32    1
@<TRIPOS>MOLECULE
*****
 32 35 0 0 0
SMALL
GASTEIGER

@<TRIPOS>ATOM
      1 C         140.9829  140.5416  169.0221 C.ar    1  UNL1        0.1638
      2 C         139.7723  139.9329  168.3786 C.ar    1  UNL1        0.0727
      3 C         139.4964  140.1714  166.9237 C.ar    1  UNL1        0.1333
      4 N         140.4311  141.0187  166.1121 N.ar    1  UNL1       -0.2103
      5 C         141.6416  141.6274  166.7556 C.ar    1  UNL1        0.1890
      6 C         141.9175  141.3888  168.2106 C.ar    1  UNL1        0.1740
      7 N         143.1807  142.1145  168.5680 N.ar    1  UNL1       -0.1237
      8 N         143.6855  142.8016  167.3338 N.ar    1  UNL1       -0.0581
      9 N         142.7343  142.5005  166.2137 N.ar    1  UNL1       -0.1927
     10 C         142.8547  142.9872  164.8000 C.ar    1  UNL1        0.0891
     11 C         144.2071  143.1194  164.1650 C.ar    1  UNL1        0.0195
     12 C         144.3276  143.6061  162.7511 C.ar    1  UNL1        0.0047
     13 C         143.0956  143.9605  161.9725 C.ar    1  UNL1        0.0373
     14 C         141.7430  143.8283  162.6076 C.ar    1  UNL1        0.1483
     15 C         141.6226  143.3416  164.0213 C.ar    1  UNL1        0.0564
     16 O         140.5110  144.1827  161.8288 O.3     1  UNL1       -0.4044
     17 C         140.0284  145.6025  161.7938 C.3     1  UNL1        0.5753
     18 F         139.5457  147.0223  161.7588 F       1  UNL1       -0.1328
     19 F         140.7036  145.7994  160.4690 F       1  UNL1       -0.1328
     20 F         139.3531  145.4057  163.1187 F       1  UNL1       -0.1328
     21 C         141.0978  141.4209  171.4642 C.3     1  UNL1        0.2525
     22 O         141.2587  140.3030  170.4771 O.3     1  UNL1       -0.4696
     23 N         138.2858  139.5627  166.2801 N.pl3   1  UNL1       -0.3180
     24 H         137.4384  140.0631  166.2534 H       1  UNL1        0.1482
     25 C         138.3665  138.1916  165.6772 C.3     1  UNL1        0.0882
     26 C         139.1999  137.9589  164.4520 C.3     1  UNL1        0.0223
     27 C         140.6085  137.4610  164.5864 C.3     1  UNL1        0.0188
     28 C         141.4418  137.2284  163.3610 C.3     1  UNL1        0.0686
     29 N         140.8667  137.4936  162.0014 N.3     1  UNL1       -0.2975
     30 C         139.4581  137.9914  161.8669 C.3     1  UNL1        0.0686
     31 C         138.6247  138.2241  163.0922 C.3     1  UNL1        0.0188
     32 H         140.9198  136.6167  161.4831 H       1  UNL1        0.1232
@<TRIPOS>BOND
     1    21    22    1
     2    22     1    1
     3     1     2   ar
     4     2     3   ar
     5     3    23    1
     6    23    25    1
     7    25    26    1
     8    26    27    1
     9    27    28    1
    10    28    29    1
    11    29    30    1
    12    30    31    1
    13     3     4   ar
    14     4     5   ar
    15     5     6   ar
    16     6     7   ar
    17     7     8   ar
    18     8     9   ar
    19     9    10    1
    20    10    11   ar
    21    11    12   ar
    22    12    13   ar
    23    13    14   ar
    24    14    16    1
    25    16    17    1
    26    17    18    1
    27    17    19    1
    28    17    20    1
    29    14    15   ar
    30     6     1   ar
    31    15    10   ar
    32    31    26    1
    33     9     5   ar
    34    23    24    1
    35    29    32    1
@<TRIPOS>MOLECULE
*****
 32 35 0 0 0
SMALL
GASTEIGER

@<TRIPOS>ATOM
      1 C         142.6485  138.0556  161.2454 C.ar    1  UNL1        0.1638
      2 C         143.9364  138.5262  161.8538 C.ar    1  UNL1        0.0727
      3 C         143.9602  139.0216  163.2693 C.ar    1  UNL1        0.1333
      4 N         142.6963  139.0465  164.0767 N.ar    1  UNL1       -0.2103
      5 C         141.4085  138.5759  163.4684 C.ar    1  UNL1        0.1890
      6 C         141.3846  138.0805  162.0528 C.ar    1  UNL1        0.1740
      7 N         139.9760  137.6827  161.7246 N.ar    1  UNL1       -0.1237
      8 N         139.1294  137.9322  162.9374 N.ar    1  UNL1       -0.0581
      9 N         140.0147  138.4843  164.0151 N.ar    1  UNL1       -0.1927
     10 C         139.5821  138.8760  165.3969 C.ar    1  UNL1        0.0891
     11 C         138.2660  138.3976  165.9346 C.ar    1  UNL1        0.0195
     12 C         137.8334  138.7893  167.3165 C.ar    1  UNL1        0.0047
     13 C         138.7168  139.6593  168.1606 C.ar    1  UNL1        0.0373
     14 C         140.0329  140.1377  167.6228 C.ar    1  UNL1        0.1483
     15 C         140.4655  139.7460  166.2411 C.ar    1  UNL1        0.0564
     16 O         140.9163  141.0077  168.4670 O.3     1  UNL1       -0.4044
     17 C         142.0679  141.7380  167.8421 C.3     1  UNL1        0.5753
     18 F         143.2194  142.4683  167.2173 F       1  UNL1       -0.1328
     19 F         141.1327  142.8147  167.3772 F       1  UNL1       -0.1328
     20 F         143.0030  140.6613  168.3071 F       1  UNL1       -0.1328
     21 C         142.8231  138.5212  158.6954 C.3     1  UNL1        0.2525
     22 O         142.6247  137.5601  159.8298 O.3     1  UNL1       -0.4696
     23 N         145.2481  139.4922  163.8777 N.pl3   1  UNL1       -0.3180
     24 H         145.9189  138.8372  164.1781 H       1  UNL1        0.1482
     25 C         145.5138  140.9607  164.0283 C.3     1  UNL1        0.0882
     26 C         144.7242  141.9519  163.2258 C.3     1  UNL1        0.0223
     27 C         143.6938  142.8103  163.8979 C.3     1  UNL1        0.0188
     28 C         142.9042  143.8014  163.0953 C.3     1  UNL1        0.0686
     29 N         143.1450  143.9343  161.6208 N.3     1  UNL1       -0.2975
     30 C         144.1753  143.0760  160.9487 C.3     1  UNL1        0.0686
     31 C         144.9649  142.0849  161.7512 C.3     1  UNL1        0.0188
     32 H         143.4141  144.9037  161.4526 H       1  UNL1        0.1232
@<TRIPOS>BOND
     1    21    22    1
     2    22     1    1
     3     1     2   ar
     4     2     3   ar
     5     3    23    1
     6    23    25    1
     7    25    26    1
     8    26    27    1
     9    27    28    1
    10    28    29    1
    11    29    30    1
    12    30    31    1
    13     3     4   ar
    14     4     5   ar
    15     5     6   ar
    16     6     7   ar
    17     7     8   ar
    18     8     9   ar
    19     9    10    1
    20    10    11   ar
    21    11    12   ar
    22    12    13   ar
    23    13    14   ar
    24    14    16    1
    25    16    17    1
    26    17    18    1
    27    17    19    1
    28    17    20    1
    29    14    15   ar
    30     6     1   ar
    31    15    10   ar
    32    31    26    1
    33     9     5   ar
    34    23    24    1
    35    29    32    1
@<TRIPOS>MOLECULE
*****
 32 35 0 0 0
SMALL
GASTEIGER

@<TRIPOS>ATOM
      1 C         141.5224  141.7284  169.0334 C.ar    1  UNL1        0.1638
      2 C         140.7103  142.7943  168.3592 C.ar    1  UNL1        0.0727
      3 C         140.5034  142.7529  166.8742 C.ar    1  UNL1        0.1333
      4 N         141.1085  141.6456  166.0632 N.ar    1  UNL1       -0.2103
      5 C         141.9205  140.5796  166.7373 C.ar    1  UNL1        0.1890
      6 C         142.1275  140.6211  168.2224 C.ar    1  UNL1        0.1740
      7 N         142.9695  139.4406  168.6062 N.ar    1  UNL1       -0.1237
      8 N         143.2830  138.6695  167.3583 N.ar    1  UNL1       -0.0581
      9 N         142.6347  139.3735  166.2033 N.ar    1  UNL1       -0.1927
     10 C         142.6907  138.9463  164.7665 C.ar    1  UNL1        0.0891
     11 C         143.9535  139.1301  163.9782 C.ar    1  UNL1        0.0195
     12 C         144.0096  138.7030  162.5413 C.ar    1  UNL1        0.0047
     13 C         142.8029  138.0920  161.8929 C.ar    1  UNL1        0.0373
     14 C         141.5401  137.9082  162.6813 C.ar    1  UNL1        0.1483
     15 C         141.4839  138.3353  164.1181 C.ar    1  UNL1        0.0564
     16 O         140.3334  137.2972  162.0328 O.3     1  UNL1       -0.4044
     17 C         139.0280  138.0362  162.0304 C.3     1  UNL1        0.5753
     18 F         137.7227  138.7752  162.0280 F       1  UNL1       -0.1328
     19 F         139.5142  138.8911  160.8978 F       1  UNL1       -0.1328
     20 F         138.5419  137.1813  163.1630 F       1  UNL1       -0.1328
     21 C         140.8188  140.9953  171.4245 C.3     1  UNL1        0.2525
     22 O         141.7293  141.7699  170.5185 O.3     1  UNL1       -0.4696
     23 N         139.6914  143.8188  166.2000 N.pl3   1  UNL1       -0.3180
     24 H         139.3837  144.6012  166.7123 H       1  UNL1        0.1482
     25 C         139.3482  143.6926  164.7452 C.3     1  UNL1        0.0882
     26 C         140.3215  144.1559  163.7021 C.3     1  UNL1        0.0223
     27 C         139.9094  144.2045  162.2606 C.3     1  UNL1        0.0188
     28 C         140.8828  144.6678  161.2176 C.3     1  UNL1        0.0686
     29 N         142.2681  145.0824  161.6160 N.3     1  UNL1       -0.2975
     30 C         142.6802  145.0338  163.0574 C.3     1  UNL1        0.0686
     31 C         141.7069  144.5706  164.1005 C.3     1  UNL1        0.0188
     32 H         142.3865  146.0477  161.3083 H       1  UNL1        0.1232
@<TRIPOS>BOND
     1    21    22    1
     2    22     1    1
     3     1     2   ar
     4     2     3   ar
     5     3    23    1
     6    23    25    1
     7    25    26    1
     8    26    27    1
     9    27    28    1
    10    28    29    1
    11    29    30    1
    12    30    31    1
    13     3     4   ar
    14     4     5   ar
    15     5     6   ar
    16     6     7   ar
    17     7     8   ar
    18     8     9   ar
    19     9    10    1
    20    10    11   ar
    21    11    12   ar
    22    12    13   ar
    23    13    14   ar
    24    14    16    1
    25    16    17    1
    26    17    18    1
    27    17    19    1
    28    17    20    1
    29    14    15   ar
    30     6     1   ar
    31    15    10   ar
    32    31    26    1
    33     9     5   ar
    34    23    24    1
    35    29    32    1
