@<TRIPOS>MOLECULE
*****
 36 40 0 0 0
SMALL
GASTEIGER

@<TRIPOS>ATOM
      1 N         138.0895  140.0109  162.4180 N.3     1  UNL1       -0.2703
      2 C         137.7189  140.7146  163.6898 C.3     1  UNL1        0.0736
      3 C         137.5995  142.2096  163.7124 C.3     1  UNL1        0.0356
      4 C         137.8507  143.0011  162.4632 C.3     1  UNL1        0.0843
      5 C         138.2213  142.2974  161.1913 C.3     1  UNL1        0.1407
      6 O         138.4725  143.0888  159.9421 O.3     1  UNL1       -0.3817
      7 C         138.3407  140.8023  161.1688 C.3     1  UNL1        0.1031
      8 H         138.6991  142.4854  159.2172 H       1  UNL1        0.2105
      9 N         137.7313  144.4961  162.4858 N.3     1  UNL1       -0.2915
     10 H         137.0815  144.7283  163.2370 H       1  UNL1        0.1236
     11 C         138.9520  145.3430  162.6920 C.3     1  UNL1        0.1153
     12 C         140.3169  144.7301  162.5851 C.ar    1  UNL1        0.0782
     13 C         141.0229  144.2515  163.8190 C.ar    1  UNL1        0.0562
     14 C         142.3878  143.6385  163.7120 C.ar    1  UNL1        0.1752
     15 C         143.0466  143.5042  162.3712 C.ar    1  UNL1        0.1914
     16 C         142.3406  143.9828  161.1373 C.ar    1  UNL1        0.1384
     17 N         140.9758  144.5957  161.2442 N.ar    1  UNL1       -0.2434
     18 O         144.4115  142.8912  162.2642 O.3     1  UNL1       -0.4668
     19 C         145.1176  142.4127  163.4981 C.3     1  UNL1        0.2527
     20 C         144.4587  142.5470  164.8390 C.3     1  UNL1        0.2526
     21 O         143.0938  143.1600  164.9459 O.3     1  UNL1       -0.4683
     22 C         138.2090  138.5159  162.3954 C.3     1  UNL1        0.0770
     23 C         139.0078  137.8112  163.4516 C.3     1  UNL1        0.0476
     24 C         139.9718  139.6021  167.4657 C.ar    1  UNL1        0.2250
     25 C         141.3707  140.0490  167.7711 C.ar    1  UNL1        0.0593
     26 C         142.4483  139.8990  166.7385 C.ar    1  UNL1        0.0254
     27 C         142.1269  139.3020  165.4004 C.ar    1  UNL1        0.0990
     28 N         143.2045  139.1520  164.3678 N.ar    1  UNL1       -0.2400
     29 C         142.8832  138.5550  163.0298 C.ar    1  UNL1        0.1281
     30 C         141.4842  138.1081  162.7243 C.ar    1  UNL1        0.1567
     31 F         141.1629  137.5111  161.3863 F       1  UNL1       -0.2028
     32 C         140.4066  138.2581  163.7570 C.ar    1  UNL1        0.0274
     33 C         140.7280  138.8551  165.0950 C.ar    1  UNL1        0.1002
     34 N         139.6505  139.0052  166.1277 N.ar    1  UNL1       -0.2104
     35 C         139.1932  140.4335  169.8008 C.3     1  UNL1        0.2542
     36 O         138.8942  139.7522  168.4983 O.3     1  UNL1       -0.4561
@<TRIPOS>BOND
     1    35    36    1
     2    36    24    1
     3    24    25   ar
     4    25    26   ar
     5    26    27   ar
     6    27    28   ar
     7    28    29   ar
     8    29    30   ar
     9    30    31    1
    10    30    32   ar
    11    32    23    1
    12    23    22    1
    13    22     1    1
    14     1     2    1
    15     2     3    1
    16     3     4    1
    17     4     9    1
    18     9    11    1
    19    11    12    1
    20    12    13   ar
    21    13    14   ar
    22    14    15   ar
    23    15    16   ar
    24    16    17   ar
    25    15    18    1
    26    18    19    1
    27    19    20    1
    28    20    21    1
    29     4     5    1
    30     5     6    1
    31     5     7    1
    32    32    33   ar
    33    33    34   ar
    34    34    24   ar
    35    33    27   ar
    36     7     1    1
    37    17    12   ar
    38    21    14    1
    39     9    10    1
    40     6     8    1
@<TRIPOS>MOLECULE
*****
 36 40 0 0 0
SMALL
GASTEIGER

@<TRIPOS>ATOM
      1 N         143.0185  144.0643  162.4553 N.3     1  UNL1       -0.2703
      2 C         142.4464  144.8880  163.5708 C.3     1  UNL1        0.0736
      3 C         140.9934  145.2601  163.5594 C.3     1  UNL1        0.0356
      4 C         140.1123  144.8084  162.4326 C.3     1  UNL1        0.0843
      5 C         140.6843  143.9847  161.3171 C.3     1  UNL1        0.1407
      6 O         139.8033  143.5330  160.1903 O.3     1  UNL1       -0.3817
      7 C         142.1374  143.6126  161.3285 C.3     1  UNL1        0.1031
      8 H         140.3262  143.0147  159.5588 H       1  UNL1        0.2105
      9 N         138.6592  145.1804  162.4213 N.3     1  UNL1       -0.2915
     10 H         138.3728  145.2190  161.4431 H       1  UNL1        0.1236
     11 C         137.6586  144.3178  163.1317 C.3     1  UNL1        0.1153
     12 C         137.8471  142.8303  163.1746 C.ar    1  UNL1        0.0782
     13 C         138.1718  142.1526  164.4728 C.ar    1  UNL1        0.0562
     14 C         138.3602  140.6650  164.5157 C.ar    1  UNL1        0.1752
     15 C         138.2240  139.8553  163.2604 C.ar    1  UNL1        0.1914
     16 C         137.8993  140.5330  161.9623 C.ar    1  UNL1        0.1384
     17 N         137.7108  142.0205  161.9193 N.ar    1  UNL1       -0.2434
     18 O         138.4124  138.3678  163.3033 O.3     1  UNL1       -0.4668
     19 C         138.7371  137.6900  164.6015 C.3     1  UNL1        0.2527
     20 C         138.8734  138.4999  165.8568 C.3     1  UNL1        0.2526
     21 O         138.6849  139.9873  165.8139 O.3     1  UNL1       -0.4683
     22 C         144.4715  143.6923  162.4666 C.3     1  UNL1        0.0770
     23 C         144.9793  142.6816  163.4518 C.3     1  UNL1        0.0476
     24 C         143.5420  139.0797  161.1691 C.ar    1  UNL1        0.2250
     25 C         142.5901  138.1152  161.8121 C.ar    1  UNL1        0.0593
     26 C         142.1173  138.3511  163.2159 C.ar    1  UNL1        0.0254
     27 C         142.5964  139.5517  163.9768 C.ar    1  UNL1        0.0990
     28 N         142.1236  139.7877  165.3806 N.ar    1  UNL1       -0.2400
     29 C         142.6027  140.9883  166.1415 C.ar    1  UNL1        0.1281
     30 C         143.5546  141.9530  165.4986 C.ar    1  UNL1        0.1567
     31 F         144.0337  143.1536  166.2595 F       1  UNL1       -0.2028
     32 C         144.0274  141.7170  164.0948 C.ar    1  UNL1        0.0274
     33 C         143.5483  140.5163  163.3339 C.ar    1  UNL1        0.1002
     34 N         144.0211  140.2803  161.9300 N.ar    1  UNL1       -0.2104
     35 C         143.4772  139.6802  158.6422 C.3     1  UNL1        0.2542
     36 O         144.0148  138.8438  159.7653 O.3     1  UNL1       -0.4561
@<TRIPOS>BOND
     1    35    36    1
     2    36    24    1
     3    24    25   ar
     4    25    26   ar
     5    26    27   ar
     6    27    28   ar
     7    28    29   ar
     8    29    30   ar
     9    30    31    1
    10    30    32   ar
    11    32    23    1
    12    23    22    1
    13    22     1    1
    14     1     2    1
    15     2     3    1
    16     3     4    1
    17     4     9    1
    18     9    11    1
    19    11    12    1
    20    12    13   ar
    21    13    14   ar
    22    14    15   ar
    23    15    16   ar
    24    16    17   ar
    25    15    18    1
    26    18    19    1
    27    19    20    1
    28    20    21    1
    29     4     5    1
    30     5     6    1
    31     5     7    1
    32    32    33   ar
    33    33    34   ar
    34    34    24   ar
    35    33    27   ar
    36     7     1    1
    37    17    12   ar
    38    21    14    1
    39     9    10    1
    40     6     8    1
@<TRIPOS>MOLECULE
*****
 36 40 0 0 0
SMALL
GASTEIGER

@<TRIPOS>ATOM
      1 N         142.9600  143.9606  162.4842 N.3     1  UNL1       -0.2703
      2 C         142.3921  144.6537  163.6872 C.3     1  UNL1        0.0736
      3 C         140.9500  145.0658  163.7042 C.3     1  UNL1        0.0356
      4 C         140.0756  144.7848  162.5182 C.3     1  UNL1        0.0843
      5 C         140.6434  144.0917  161.3152 C.3     1  UNL1        0.1407
      6 O         139.7691  143.8107  160.1293 O.3     1  UNL1       -0.3817
      7 C         142.0856  143.6796  161.2982 C.3     1  UNL1        0.1031
      8 H         140.2881  143.3611  159.4442 H       1  UNL1        0.2105
      9 N         138.6334  145.1969  162.5353 N.3     1  UNL1       -0.2915
     10 H         138.3587  145.3473  161.5646 H       1  UNL1        0.1236
     11 C         137.6021  144.2924  163.1421 C.3     1  UNL1        0.1153
     12 C         137.7948  142.8053  163.1070 C.ar    1  UNL1        0.0782
     13 C         138.1196  142.0612  164.3683 C.ar    1  UNL1        0.0562
     14 C         138.3124  140.5740  164.3332 C.ar    1  UNL1        0.1752
     15 C         138.1804  139.8310  163.0369 C.ar    1  UNL1        0.1914
     16 C         137.8556  140.5751  161.7757 C.ar    1  UNL1        0.1384
     17 N         137.6628  142.0622  161.8107 N.ar    1  UNL1       -0.2434
     18 O         138.3732  138.3438  163.0019 O.3     1  UNL1       -0.4668
     19 C         138.6980  137.5997  164.2631 C.3     1  UNL1        0.2527
     20 C         138.8300  138.3428  165.5595 C.3     1  UNL1        0.2526
     21 O         138.6372  139.8299  165.5945 O.3     1  UNL1       -0.4683
     22 C         144.4021  143.5486  162.4671 C.3     1  UNL1        0.0770
     23 C         144.9080  142.5477  163.4634 C.3     1  UNL1        0.0476
     24 C         142.9704  141.7564  167.4470 C.ar    1  UNL1        0.2250
     25 C         142.2183  140.4787  167.6746 C.ar    1  UNL1        0.0593
     26 C         142.1121  139.4647  166.5743 C.ar    1  UNL1        0.0254
     27 C         142.7580  139.7285  165.2464 C.ar    1  UNL1        0.0990
     28 N         142.6517  138.7145  164.1461 N.ar    1  UNL1       -0.2400
     29 C         143.2976  138.9783  162.8183 C.ar    1  UNL1        0.1281
     30 C         144.0497  140.2561  162.5907 C.ar    1  UNL1        0.1567
     31 F         144.6956  140.5198  161.2628 F       1  UNL1       -0.2028
     32 C         144.1559  141.2700  163.6910 C.ar    1  UNL1        0.0274
     33 C         143.5100  141.0062  165.0189 C.ar    1  UNL1        0.1002
     34 N         143.6163  142.0201  166.1192 N.ar    1  UNL1       -0.2104
     35 C         143.5505  142.3535  169.9081 C.3     1  UNL1        0.2542
     36 O         143.0766  142.7703  168.5473 O.3     1  UNL1       -0.4561
@<TRIPOS>BOND
     1    35    36    1
     2    36    24    1
     3    24    25   ar
     4    25    26   ar
     5    26    27   ar
     6    27    28   ar
     7    28    29   ar
     8    29    30   ar
     9    30    31    1
    10    30    32   ar
    11    32    23    1
    12    23    22    1
    13    22     1    1
    14     1     2    1
    15     2     3    1
    16     3     4    1
    17     4     9    1
    18     9    11    1
    19    11    12    1
    20    12    13   ar
    21    13    14   ar
    22    14    15   ar
    23    15    16   ar
    24    16    17   ar
    25    15    18    1
    26    18    19    1
    27    19    20    1
    28    20    21    1
    29     4     5    1
    30     5     6    1
    31     5     7    1
    32    32    33   ar
    33    33    34   ar
    34    34    24   ar
    35    33    27   ar
    36     7     1    1
    37    17    12   ar
    38    21    14    1
    39     9    10    1
    40     6     8    1
@<TRIPOS>MOLECULE
*****
 36 40 0 0 0
SMALL
GASTEIGER

@<TRIPOS>ATOM
      1 N         141.8093  138.0438  164.1882 N.3     1  UNL1       -0.2703
      2 C         142.4144  138.6794  165.4047 C.3     1  UNL1        0.0736
      3 C         143.6966  139.4493  165.2894 C.3     1  UNL1        0.0356
      4 C         144.3737  139.5835  163.9576 C.3     1  UNL1        0.0843
      5 C         143.7686  138.9478  162.7412 C.3     1  UNL1        0.1407
      6 O         144.4456  139.0820  161.4094 O.3     1  UNL1       -0.3817
      7 C         142.4863  138.1779  162.8565 C.3     1  UNL1        0.1031
      8 H         143.9272  138.6162  160.7348 H       1  UNL1        0.2105
      9 N         145.6559  140.3533  163.8423 N.3     1  UNL1       -0.2915
     10 H         146.1398  139.9977  163.0179 H       1  UNL1        0.1236
     11 C         145.6247  141.8476  163.7151 C.3     1  UNL1        0.1153
     12 C         144.6021  142.5043  162.8359 C.ar    1  UNL1        0.0782
     13 C         143.6100  143.4623  163.4258 C.ar    1  UNL1        0.0562
     14 C         142.5874  144.1190  162.5465 C.ar    1  UNL1        0.1752
     15 C         142.5569  143.8176  161.0774 C.ar    1  UNL1        0.1914
     16 C         143.5490  142.8596  160.4875 C.ar    1  UNL1        0.1384
     17 N         144.5716  142.2029  161.3668 N.ar    1  UNL1       -0.2434
     18 O         141.5343  144.4743  160.1981 O.3     1  UNL1       -0.4668
     19 C         140.5422  145.4324  160.7879 C.3     1  UNL1        0.2527
     20 C         140.5727  145.7337  162.2571 C.3     1  UNL1        0.2526
     21 O         141.5953  145.0770  163.1363 O.3     1  UNL1       -0.4683
     22 C         140.5271  137.2739  164.3035 C.3     1  UNL1        0.0770
     23 C         139.2555  137.9842  164.6620 C.3     1  UNL1        0.0476
     24 C         139.8915  142.1611  166.2108 C.ar    1  UNL1        0.2250
     25 C         139.4362  143.3387  165.4009 C.ar    1  UNL1        0.0593
     26 C         138.7689  143.1240  164.0748 C.ar    1  UNL1        0.0254
     27 C         138.5569  141.7318  163.5585 C.ar    1  UNL1        0.0990
     28 N         137.8896  141.5171  162.2324 N.ar    1  UNL1       -0.2400
     29 C         137.6776  140.1248  161.7161 C.ar    1  UNL1        0.1281
     30 C         138.1329  138.9471  162.5260 C.ar    1  UNL1        0.1567
     31 F         137.9209  137.5548  162.0097 F       1  UNL1       -0.2028
     32 C         138.8002  139.1618  163.8521 C.ar    1  UNL1        0.0274
     33 C         139.0122  140.5542  164.3684 C.ar    1  UNL1        0.1002
     34 N         139.6795  140.7689  165.6945 N.ar    1  UNL1       -0.2104
     35 C         140.3164  141.4148  168.6628 C.3     1  UNL1        0.2542
     36 O         140.5588  142.3758  167.5369 O.3     1  UNL1       -0.4561
@<TRIPOS>BOND
     1    35    36    1
     2    36    24    1
     3    24    25   ar
     4    25    26   ar
     5    26    27   ar
     6    27    28   ar
     7    28    29   ar
     8    29    30   ar
     9    30    31    1
    10    30    32   ar
    11    32    23    1
    12    23    22    1
    13    22     1    1
    14     1     2    1
    15     2     3    1
    16     3     4    1
    17     4     9    1
    18     9    11    1
    19    11    12    1
    20    12    13   ar
    21    13    14   ar
    22    14    15   ar
    23    15    16   ar
    24    16    17   ar
    25    15    18    1
    26    18    19    1
    27    19    20    1
    28    20    21    1
    29     4     5    1
    30     5     6    1
    31     5     7    1
    32    32    33   ar
    33    33    34   ar
    34    34    24   ar
    35    33    27   ar
    36     7     1    1
    37    17    12   ar
    38    21    14    1
    39     9    10    1
    40     6     8    1
@<TRIPOS>MOLECULE
*****
 36 40 0 0 0
SMALL
GASTEIGER

@<TRIPOS>ATOM
      1 N         138.0814  139.8739  162.1554 N.3     1  UNL1       -0.2703
      2 C         137.6768  140.4971  163.4584 C.3     1  UNL1        0.0736
      3 C         137.5605  141.9882  163.5725 C.3     1  UNL1        0.0356
      4 C         137.8489  142.8561  162.3836 C.3     1  UNL1        0.0843
      5 C         138.2535  142.2329  161.0805 C.3     1  UNL1        0.1407
      6 O         138.5419  143.1008  159.8916 O.3     1  UNL1       -0.3817
      7 C         138.3698  140.7417  160.9665 C.3     1  UNL1        0.1031
      8 H         138.7874  142.5436  159.1365 H       1  UNL1        0.2105
      9 N         137.7326  144.3472  162.4977 N.3     1  UNL1       -0.2915
     10 H         137.0485  144.5340  163.2308 H       1  UNL1        0.1236
     11 C         138.9445  145.1718  162.8161 C.3     1  UNL1        0.1153
     12 C         140.3157  144.5951  162.6239 C.ar    1  UNL1        0.0782
     13 C         141.0579  144.0193  163.7934 C.ar    1  UNL1        0.0562
     14 C         142.4292  143.4425  163.6012 C.ar    1  UNL1        0.1752
     15 C         143.0583  143.4416  162.2395 C.ar    1  UNL1        0.1914
     16 C         142.3162  144.0174  161.0700 C.ar    1  UNL1        0.1384
     17 N         140.9449  144.5941  161.2622 N.ar    1  UNL1       -0.2434
     18 O         144.4296  142.8648  162.0473 O.3     1  UNL1       -0.4668
     19 C         145.1718  142.2890  163.2167 C.3     1  UNL1        0.2527
     20 C         144.5426  142.2900  164.5785 C.3     1  UNL1        0.2526
     21 O         143.1713  142.8667  164.7706 O.3     1  UNL1       -0.4683
     22 C         138.1977  138.3828  162.0413 C.3     1  UNL1        0.0770
     23 C         138.8836  137.5991  163.1209 C.3     1  UNL1        0.0476
     24 C         142.6971  137.7762  160.7385 C.ar    1  UNL1        0.2250
     25 C         143.9510  138.3060  161.3684 C.ar    1  UNL1        0.0593
     26 C         143.9338  138.7768  162.7925 C.ar    1  UNL1        0.0254
     27 C         142.6627  138.7178  163.5867 C.ar    1  UNL1        0.0990
     28 N         142.6455  139.1887  165.0107 N.ar    1  UNL1       -0.2400
     29 C         141.3744  139.1296  165.8049 C.ar    1  UNL1        0.1281
     30 C         140.1204  138.5998  165.1749 C.ar    1  UNL1        0.1567
     31 F         138.8492  138.5408  165.9691 F       1  UNL1       -0.2028
     32 C         140.1376  138.1290  163.7508 C.ar    1  UNL1        0.0274
     33 C         141.4088  138.1880  162.9567 C.ar    1  UNL1        0.1002
     34 N         141.4260  137.7172  161.5326 N.ar    1  UNL1       -0.2104
     35 C         142.5314  138.2891  158.1970 C.3     1  UNL1        0.2542
     36 O         142.7143  137.3054  159.3144 O.3     1  UNL1       -0.4561
@<TRIPOS>BOND
     1    35    36    1
     2    36    24    1
     3    24    25   ar
     4    25    26   ar
     5    26    27   ar
     6    27    28   ar
     7    28    29   ar
     8    29    30   ar
     9    30    31    1
    10    30    32   ar
    11    32    23    1
    12    23    22    1
    13    22     1    1
    14     1     2    1
    15     2     3    1
    16     3     4    1
    17     4     9    1
    18     9    11    1
    19    11    12    1
    20    12    13   ar
    21    13    14   ar
    22    14    15   ar
    23    15    16   ar
    24    16    17   ar
    25    15    18    1
    26    18    19    1
    27    19    20    1
    28    20    21    1
    29     4     5    1
    30     5     6    1
    31     5     7    1
    32    32    33   ar
    33    33    34   ar
    34    34    24   ar
    35    33    27   ar
    36     7     1    1
    37    17    12   ar
    38    21    14    1
    39     9    10    1
    40     6     8    1
@<TRIPOS>MOLECULE
*****
 36 40 0 0 0
SMALL
GASTEIGER

@<TRIPOS>ATOM
      1 N         143.6714  139.1773  163.6043 N.3     1  UNL1       -0.2703
      2 C         142.8710  138.4653  164.6543 C.3     1  UNL1        0.0736
      3 C         141.5956  137.7693  164.2815 C.3     1  UNL1        0.0356
      4 C         141.1207  137.7851  162.8587 C.3     1  UNL1        0.0843
      5 C         141.9211  138.4971  161.8088 C.3     1  UNL1        0.1407
      6 O         141.4463  138.5129  160.3861 O.3     1  UNL1       -0.3817
      7 C         143.1965  139.1932  162.1816 C.3     1  UNL1        0.1031
      8 H         142.0746  139.0120  159.8410 H       1  UNL1        0.2105
      9 N         139.8454  137.0891  162.4860 N.3     1  UNL1       -0.2915
     10 H         139.8173  136.2202  163.0195 H       1  UNL1        0.1236
     11 C         138.5274  137.7722  162.7014 C.3     1  UNL1        0.1153
     12 C         138.4085  139.2536  162.4987 C.ar    1  UNL1        0.0782
     13 C         138.1199  140.1497  163.6665 C.ar    1  UNL1        0.0562
     14 C         138.0010  141.6312  163.4636 C.ar    1  UNL1        0.1752
     15 C         138.1707  142.2165  162.0931 C.ar    1  UNL1        0.1914
     16 C         138.4594  141.3205  160.9253 C.ar    1  UNL1        0.1384
     17 N         138.5783  139.8390  161.1280 N.ar    1  UNL1       -0.2434
     18 O         138.0518  143.6981  161.8902 O.3     1  UNL1       -0.4668
     19 C         137.7631  144.5941  163.0580 C.3     1  UNL1        0.2527
     20 C         137.5934  144.0087  164.4287 C.3     1  UNL1        0.2526
     21 O         137.7123  142.5272  164.6314 O.3     1  UNL1       -0.4683
     22 C         144.9467  139.8734  163.9771 C.3     1  UNL1        0.0770
     23 C         144.9312  141.3329  164.3228 C.3     1  UNL1        0.0476
     24 C         142.2318  141.4580  167.9211 C.ar    1  UNL1        0.2250
     25 C         140.9456  142.2279  167.8673 C.ar    1  UNL1        0.0593
     26 C         140.5591  142.9560  166.6141 C.ar    1  UNL1        0.0254
     27 C         141.4589  142.9143  165.4147 C.ar    1  UNL1        0.0990
     28 N         141.0724  143.6425  164.1615 N.ar    1  UNL1       -0.2400
     29 C         141.9722  143.6008  162.9621 C.ar    1  UNL1        0.1281
     30 C         143.2585  142.8309  163.0159 C.ar    1  UNL1        0.1567
     31 F         144.1583  142.7892  161.8164 F       1  UNL1       -0.2028
     32 C         143.6450  142.1028  164.2690 C.ar    1  UNL1        0.0274
     33 C         142.7451  142.1445  165.4685 C.ar    1  UNL1        0.1002
     34 N         143.1316  141.4163  166.7217 N.ar    1  UNL1       -0.2104
     35 C         141.7703  139.5991  169.6765 C.3     1  UNL1        0.2542
     36 O         142.6183  140.7299  169.1743 O.3     1  UNL1       -0.4561
@<TRIPOS>BOND
     1    35    36    1
     2    36    24    1
     3    24    25   ar
     4    25    26   ar
     5    26    27   ar
     6    27    28   ar
     7    28    29   ar
     8    29    30   ar
     9    30    31    1
    10    30    32   ar
    11    32    23    1
    12    23    22    1
    13    22     1    1
    14     1     2    1
    15     2     3    1
    16     3     4    1
    17     4     9    1
    18     9    11    1
    19    11    12    1
    20    12    13   ar
    21    13    14   ar
    22    14    15   ar
    23    15    16   ar
    24    16    17   ar
    25    15    18    1
    26    18    19    1
    27    19    20    1
    28    20    21    1
    29     4     5    1
    30     5     6    1
    31     5     7    1
    32    32    33   ar
    33    33    34   ar
    34    34    24   ar
    35    33    27   ar
    36     7     1    1
    37    17    12   ar
    38    21    14    1
    39     9    10    1
    40     6     8    1
@<TRIPOS>MOLECULE
*****
 36 40 0 0 0
SMALL
GASTEIGER

@<TRIPOS>ATOM
      1 N         142.9975  144.4631  163.3120 N.3     1  UNL1       -0.2703
      2 C         143.1285  143.8196  161.9634 C.3     1  UNL1        0.0736
      3 C         141.9176  143.6423  161.0962 C.3     1  UNL1        0.0356
      4 C         140.5756  144.1085  161.5775 C.3     1  UNL1        0.0843
      5 C         140.4445  144.7520  162.9261 C.3     1  UNL1        0.1407
      6 O         139.1026  145.2182  163.4075 O.3     1  UNL1       -0.3817
      7 C         141.6556  144.9293  163.7933 C.3     1  UNL1        0.1031
      8 H         139.1935  145.6076  164.2912 H       1  UNL1        0.2105
      9 N         139.3646  143.9311  160.7103 N.3     1  UNL1       -0.2915
     10 H         139.6615  144.1072  159.7505 H       1  UNL1        0.1236
     11 C         138.6319  142.6222  160.7037 C.3     1  UNL1        0.1153
     12 C         138.4485  141.8590  161.9819 C.ar    1  UNL1        0.0782
     13 C         138.9155  140.4370  162.0800 C.ar    1  UNL1        0.0562
     14 C         138.7320  139.6737  163.3583 C.ar    1  UNL1        0.1752
     15 C         138.0816  140.3326  164.5384 C.ar    1  UNL1        0.1914
     16 C         137.6146  141.7547  164.4403 C.ar    1  UNL1        0.1384
     17 N         137.7980  142.5179  163.1622 N.ar    1  UNL1       -0.2434
     18 O         137.8981  139.5694  165.8167 O.3     1  UNL1       -0.4668
     19 C         138.3651  138.1473  165.9147 C.3     1  UNL1        0.2527
     20 C         139.0156  137.4885  164.7345 C.3     1  UNL1        0.2526
     21 O         139.1990  138.2517  163.4563 O.3     1  UNL1       -0.4683
     22 C         144.2085  144.6405  164.1792 C.3     1  UNL1        0.0770
     23 C         144.4850  143.6697  165.2889 C.3     1  UNL1        0.0476
     24 C         141.1735  141.7041  167.6170 C.ar    1  UNL1        0.2250
     25 C         140.8862  140.2444  167.4255 C.ar    1  UNL1        0.0593
     26 C         141.7027  139.4399  166.4579 C.ar    1  UNL1        0.0254
     27 C         142.8065  140.0951  165.6819 C.ar    1  UNL1        0.0990
     28 N         143.6230  139.2906  164.7144 N.ar    1  UNL1       -0.2400
     29 C         144.7268  139.9458  163.9383 C.ar    1  UNL1        0.1281
     30 C         145.0142  141.4056  164.1298 C.ar    1  UNL1        0.1567
     31 F         146.1180  142.0608  163.3538 F       1  UNL1       -0.2028
     32 C         144.1977  142.2101  165.0974 C.ar    1  UNL1        0.0274
     33 C         143.0938  141.5548  165.8734 C.ar    1  UNL1        0.1002
     34 N         142.2773  142.3593  166.8409 N.ar    1  UNL1       -0.2104
     35 C         139.9493  141.9122  169.8991 C.3     1  UNL1        0.2542
     36 O         140.3570  142.5086  168.5845 O.3     1  UNL1       -0.4561
@<TRIPOS>BOND
     1    35    36    1
     2    36    24    1
     3    24    25   ar
     4    25    26   ar
     5    26    27   ar
     6    27    28   ar
     7    28    29   ar
     8    29    30   ar
     9    30    31    1
    10    30    32   ar
    11    32    23    1
    12    23    22    1
    13    22     1    1
    14     1     2    1
    15     2     3    1
    16     3     4    1
    17     4     9    1
    18     9    11    1
    19    11    12    1
    20    12    13   ar
    21    13    14   ar
    22    14    15   ar
    23    15    16   ar
    24    16    17   ar
    25    15    18    1
    26    18    19    1
    27    19    20    1
    28    20    21    1
    29     4     5    1
    30     5     6    1
    31     5     7    1
    32    32    33   ar
    33    33    34   ar
    34    34    24   ar
    35    33    27   ar
    36     7     1    1
    37    17    12   ar
    38    21    14    1
    39     9    10    1
    40     6     8    1
@<TRIPOS>MOLECULE
*****
 36 40 0 0 0
SMALL
GASTEIGER

@<TRIPOS>ATOM
      1 N         144.4124  142.8542  162.9969 N.3     1  UNL1       -0.2703
      2 C         143.8883  143.5259  164.2315 C.3     1  UNL1        0.0736
      3 C         142.7816  144.5328  164.1252 C.3     1  UNL1        0.0356
      4 C         142.1989  144.8681  162.7842 C.3     1  UNL1        0.0843
      5 C         142.7231  144.1964  161.5496 C.3     1  UNL1        0.1407
      6 O         142.1405  144.5317  160.2086 O.3     1  UNL1       -0.3817
      7 C         143.8298  143.1895  161.6560 C.3     1  UNL1        0.1031
      8 H         142.5890  144.0131  159.5225 H       1  UNL1        0.2105
      9 N         141.0923  145.8749  162.6778 N.3     1  UNL1       -0.2915
     10 H         141.2208  146.3611  161.7904 H       1  UNL1        0.1236
     11 C         139.6620  145.4249  162.7218 C.3     1  UNL1        0.1153
     12 C         139.2747  144.0989  162.1374 C.ar    1  UNL1        0.0782
     13 C         139.0291  142.9251  163.0384 C.ar    1  UNL1        0.0562
     14 C         138.6418  141.5990  162.4540 C.ar    1  UNL1        0.1752
     15 C         138.5001  141.4467  160.9685 C.ar    1  UNL1        0.1914
     16 C         138.7457  142.6205  160.0674 C.ar    1  UNL1        0.1384
     17 N         139.1330  143.9465  160.6518 N.ar    1  UNL1       -0.2434
     18 O         138.1128  140.1206  160.3840 O.3     1  UNL1       -0.4668
     19 C         137.8672  138.9468  161.2851 C.3     1  UNL1        0.2527
     20 C         138.0089  139.0992  162.7706 C.3     1  UNL1        0.2526
     21 O         138.3962  140.4252  163.3550 O.3     1  UNL1       -0.4683
     22 C         145.5191  141.8474  163.1033 C.3     1  UNL1        0.0770
     23 C         145.2905  140.5557  163.8309 C.3     1  UNL1        0.0476
     24 C         142.2862  140.5899  167.1809 C.ar    1  UNL1        0.2250
     25 C         140.9832  139.8629  167.0272 C.ar    1  UNL1        0.0593
     26 C         140.6817  139.1245  165.7569 C.ar    1  UNL1        0.0254
     27 C         141.6831  139.1131  164.6402 C.ar    1  UNL1        0.0990
     28 N         141.3815  138.3746  163.3699 N.ar    1  UNL1       -0.2400
     29 C         142.3830  138.3632  162.2532 C.ar    1  UNL1        0.1281
     30 C         143.6860  139.0902  162.4069 C.ar    1  UNL1        0.1567
     31 F         144.6874  139.0788  161.2902 F       1  UNL1       -0.2028
     32 C         143.9876  139.8287  163.6772 C.ar    1  UNL1        0.0274
     33 C         142.9861  139.8401  164.7939 C.ar    1  UNL1        0.1002
     34 N         143.2876  140.5785  166.0643 N.ar    1  UNL1       -0.2104
     35 C         142.8353  140.5678  169.7202 C.3     1  UNL1        0.2542
     36 O         142.5877  141.3284  168.4513 O.3     1  UNL1       -0.4561
@<TRIPOS>BOND
     1    35    36    1
     2    36    24    1
     3    24    25   ar
     4    25    26   ar
     5    26    27   ar
     6    27    28   ar
     7    28    29   ar
     8    29    30   ar
     9    30    31    1
    10    30    32   ar
    11    32    23    1
    12    23    22    1
    13    22     1    1
    14     1     2    1
    15     2     3    1
    16     3     4    1
    17     4     9    1
    18     9    11    1
    19    11    12    1
    20    12    13   ar
    21    13    14   ar
    22    14    15   ar
    23    15    16   ar
    24    16    17   ar
    25    15    18    1
    26    18    19    1
    27    19    20    1
    28    20    21    1
    29     4     5    1
    30     5     6    1
    31     5     7    1
    32    32    33   ar
    33    33    34   ar
    34    34    24   ar
    35    33    27   ar
    36     7     1    1
    37    17    12   ar
    38    21    14    1
    39     9    10    1
    40     6     8    1
@<TRIPOS>MOLECULE
*****
 36 40 0 0 0
SMALL
GASTEIGER

@<TRIPOS>ATOM
      1 N         138.7552  139.4085  161.7508 N.3     1  UNL1       -0.2703
      2 C         139.5181  139.8354  160.5320 C.3     1  UNL1        0.0736
      3 C         140.8374  139.1979  160.2115 C.3     1  UNL1        0.0356
      4 C         141.3940  138.1334  161.1099 C.3     1  UNL1        0.0843
      5 C         140.6311  137.7064  162.3288 C.3     1  UNL1        0.1407
      6 O         141.1875  136.6419  163.2272 O.3     1  UNL1       -0.3817
      7 C         139.3116  138.3440  162.6493 C.3     1  UNL1        0.1031
      8 H         140.5745  136.4866  163.9627 H       1  UNL1        0.2105
      9 N         142.7134  137.4958  160.7894 N.3     1  UNL1       -0.2915
     10 H         142.8749  137.6385  159.7925 H       1  UNL1        0.1236
     11 C         143.9560  137.9466  161.4983 C.3     1  UNL1        0.1153
     12 C         144.0699  139.3602  161.9867 C.ar    1  UNL1        0.0782
     13 C         143.8889  139.6673  163.4438 C.ar    1  UNL1        0.0562
     14 C         144.0028  141.0810  163.9321 C.ar    1  UNL1        0.1752
     15 C         144.2978  142.1876  162.9635 C.ar    1  UNL1        0.1914
     16 C         144.4788  141.8806  161.5065 C.ar    1  UNL1        0.1384
     17 N         144.3649  140.4670  161.0181 N.ar    1  UNL1       -0.2434
     18 O         144.4117  143.6014  163.4519 O.3     1  UNL1       -0.4668
     19 C         144.2306  143.9084  164.9089 C.3     1  UNL1        0.2527
     20 C         143.9356  142.8017  165.8776 C.3     1  UNL1        0.2526
     21 O         143.8217  141.3880  165.3892 O.3     1  UNL1       -0.4683
     22 C         137.4358  140.0460  162.0713 C.3     1  UNL1        0.0770
     23 C         137.3855  141.4681  162.5459 C.3     1  UNL1        0.0476
     24 C         139.8635  145.1001  161.5877 C.ar    1  UNL1        0.2250
     25 C         140.8777  145.5977  162.5745 C.ar    1  UNL1        0.0593
     26 C         141.0659  144.8847  163.8807 C.ar    1  UNL1        0.0254
     27 C         140.2399  143.6740  164.2001 C.ar    1  UNL1        0.0990
     28 N         140.4281  142.9610  165.5063 N.ar    1  UNL1       -0.2400
     29 C         139.6021  141.7504  165.8258 C.ar    1  UNL1        0.1281
     30 C         138.5878  141.2527  164.8389 C.ar    1  UNL1        0.1567
     31 F         137.7619  140.0421  165.1583 F       1  UNL1       -0.2028
     32 C         138.3997  141.9657  163.5327 C.ar    1  UNL1        0.0274
     33 C         139.2257  143.1764  163.2133 C.ar    1  UNL1        0.1002
     34 N         139.0376  143.8894  161.9071 N.ar    1  UNL1       -0.2104
     35 C         140.4559  145.3852  159.0742 C.3     1  UNL1        0.2542
     36 O         139.6754  145.8131  160.2815 O.3     1  UNL1       -0.4561
@<TRIPOS>BOND
     1    35    36    1
     2    36    24    1
     3    24    25   ar
     4    25    26   ar
     5    26    27   ar
     6    27    28   ar
     7    28    29   ar
     8    29    30   ar
     9    30    31    1
    10    30    32   ar
    11    32    23    1
    12    23    22    1
    13    22     1    1
    14     1     2    1
    15     2     3    1
    16     3     4    1
    17     4     9    1
    18     9    11    1
    19    11    12    1
    20    12    13   ar
    21    13    14   ar
    22    14    15   ar
    23    15    16   ar
    24    16    17   ar
    25    15    18    1
    26    18    19    1
    27    19    20    1
    28    20    21    1
    29     4     5    1
    30     5     6    1
    31     5     7    1
    32    32    33   ar
    33    33    34   ar
    34    34    24   ar
    35    33    27   ar
    36     7     1    1
    37    17    12   ar
    38    21    14    1
    39     9    10    1
    40     6     8    1
