@<TRIPOS>MOLECULE
*****
 22 25 0 0 0
SMALL
GASTEIGER

@<TRIPOS>ATOM
      1 O         144.1323  140.3371  164.8219 O.2     1  UNL1       -0.2666
      2 C         142.7948  140.9326  165.1481 C.2     1  UNL1        0.2834
      3 C         142.2166  142.0035  164.2712 C.ar    1  UNL1        0.1985
      4 N         142.7293  142.6685  163.0283 N.ar    1  UNL1       -0.2227
      5 C         141.7087  143.6750  162.5863 C.ar    1  UNL1        0.0988
      6 C         141.6729  144.6251  161.4262 C.ar    1  UNL1        0.0206
      7 C         140.4935  145.5322  161.2358 C.ar    1  UNL1        0.0016
      8 C         139.3500  145.4892  162.2055 C.ar    1  UNL1        0.0054
      9 C         139.3858  144.5391  163.3657 C.ar    1  UNL1        0.0887
     10 C         140.5651  143.6320  163.5561 C.ar    1  UNL1        0.0829
     11 N         140.8790  142.5990  164.5974 N.ar    1  UNL1       -0.3061
     12 C         140.1197  142.1236  165.8004 C.3     1  UNL1        0.1291
     13 C         140.6979  141.0527  166.6773 C.3     1  UNL1        0.1183
     14 N         142.0355  140.4572  166.3511 N.am    1  UNL1       -0.2716
     15 C         138.2422  144.4961  164.3355 C.3     1  UNL1        0.4200
     16 F         137.0987  144.4531  165.3052 F       1  UNL1       -0.1658
     17 F         137.4418  143.6900  163.3559 F       1  UNL1       -0.1658
     18 F         139.0426  145.3023  165.3150 F       1  UNL1       -0.1658
     19 C         142.6137  139.3863  167.2280 C.3     1  UNL1        0.0938
     20 C         142.5947  139.5466  168.7193 C.3     1  UNL1        0.0199
     21 C         142.5197  138.9420  170.0900 C.3     1  UNL1        0.0018
     22 C         142.6368  140.4290  169.9316 C.3     1  UNL1        0.0018
@<TRIPOS>BOND
     1     1     2    2
     2     2     3    1
     3     3     4   ar
     4     4     5   ar
     5     5     6   ar
     6     6     7   ar
     7     7     8   ar
     8     8     9   ar
     9     9    15    1
    10    15    16    1
    11    15    17    1
    12    15    18    1
    13     9    10   ar
    14    10    11   ar
    15    11    12    1
    16    12    13    1
    17    13    14    1
    18    14    19    1
    19    19    20    1
    20    20    21    1
    21    21    22    1
    22    14     2   am
    23    22    20    1
    24    11     3   ar
    25    10     5   ar
@<TRIPOS>MOLECULE
*****
 22 25 0 0 0
SMALL
GASTEIGER

@<TRIPOS>ATOM
      1 O         138.6610  139.0464  167.0738 O.2     1  UNL1       -0.2666
      2 C         140.0420  139.5657  166.8035 C.2     1  UNL1        0.2834
      3 C         140.7331  139.2246  165.5166 C.ar    1  UNL1        0.1985
      4 N         140.3070  138.4044  164.3352 N.ar    1  UNL1       -0.2227
      5 C         141.4246  138.4168  163.3348 C.ar    1  UNL1        0.0988
      6 C         141.5695  137.7812  161.9840 C.ar    1  UNL1        0.0206
      7 C         142.8314  137.9735  161.1962 C.ar    1  UNL1        0.0016
      8 C         143.9483  138.8014  161.7592 C.ar    1  UNL1        0.0054
      9 C         143.8033  139.4371  163.1101 C.ar    1  UNL1        0.0887
     10 C         142.5415  139.2447  163.8979 C.ar    1  UNL1        0.0829
     11 N         142.1141  139.7440  165.2463 N.ar    1  UNL1       -0.3061
     12 C         142.8040  140.6044  166.2629 C.3     1  UNL1        0.1291
     13 C         142.1130  140.9455  167.5498 C.3     1  UNL1        0.1183
     14 N         140.7320  140.4262  167.8201 N.am    1  UNL1       -0.2716
     15 C         144.9202  140.2650  163.6732 C.3     1  UNL1        0.4200
     16 F         146.0371  141.0929  164.2363 F       1  UNL1       -0.1658
     17 F         145.3618  139.1006  164.5094 F       1  UNL1       -0.1658
     18 F         144.4786  141.4294  162.8370 F       1  UNL1       -0.1658
     19 C         140.0409  140.7673  169.1070 C.3     1  UNL1        0.0938
     20 C         140.0838  142.1717  169.6320 C.3     1  UNL1        0.0199
     21 C         139.7607  143.1674  170.7064 C.3     1  UNL1        0.0018
     22 C         140.4813  143.6087  169.4670 C.3     1  UNL1        0.0018
@<TRIPOS>BOND
     1     1     2    2
     2     2     3    1
     3     3     4   ar
     4     4     5   ar
     5     5     6   ar
     6     6     7   ar
     7     7     8   ar
     8     8     9   ar
     9     9    15    1
    10    15    16    1
    11    15    17    1
    12    15    18    1
    13     9    10   ar
    14    10    11   ar
    15    11    12    1
    16    12    13    1
    17    13    14    1
    18    14    19    1
    19    19    20    1
    20    20    21    1
    21    21    22    1
    22    14     2   am
    23    22    20    1
    24    11     3   ar
    25    10     5   ar
@<TRIPOS>MOLECULE
*****
 22 25 0 0 0
SMALL
GASTEIGER

@<TRIPOS>ATOM
      1 O         138.0733  143.5514  161.2796 O.2     1  UNL1       -0.2666
      2 C         138.9969  143.6622  162.4563 C.2     1  UNL1        0.2834
      3 C         138.9476  142.6345  163.5478 C.ar    1  UNL1        0.1985
      4 N         138.1009  141.4108  163.7368 N.ar    1  UNL1       -0.2227
      5 C         138.5012  140.7653  165.0303 C.ar    1  UNL1        0.0988
      6 C         138.0107  139.5331  165.7311 C.ar    1  UNL1        0.0206
      7 C         138.6145  139.1256  167.0423 C.ar    1  UNL1        0.0016
      8 C         139.7086  139.9504  167.6528 C.ar    1  UNL1        0.0054
      9 C         140.1991  141.1825  166.9520 C.ar    1  UNL1        0.0887
     10 C         139.5954  141.5900  165.6407 C.ar    1  UNL1        0.0829
     11 N         139.8712  142.7452  164.7245 N.ar    1  UNL1       -0.3061
     12 C         140.8442  143.8836  164.8097 C.3     1  UNL1        0.1291
     13 C         140.8935  144.9113  163.7182 C.3     1  UNL1        0.1183
     14 N         139.9699  144.8006  162.5415 N.am    1  UNL1       -0.2716
     15 C         141.2932  142.0072  167.5625 C.3     1  UNL1        0.4200
     16 F         142.3874  142.8319  168.1729 F       1  UNL1       -0.1658
     17 F         140.2737  142.7809  168.3447 F       1  UNL1       -0.1658
     18 F         142.3128  141.2335  166.7802 F       1  UNL1       -0.1658
     19 C         140.0192  145.8283  161.4499 C.3     1  UNL1        0.0938
     20 C         140.5299  145.4542  160.0901 C.3     1  UNL1        0.0199
     21 C         140.3639  145.4376  158.5994 C.3     1  UNL1        0.0018
     22 C         141.5805  144.8228  159.2254 C.3     1  UNL1        0.0018
@<TRIPOS>BOND
     1     1     2    2
     2     2     3    1
     3     3     4   ar
     4     4     5   ar
     5     5     6   ar
     6     6     7   ar
     7     7     8   ar
     8     8     9   ar
     9     9    15    1
    10    15    16    1
    11    15    17    1
    12    15    18    1
    13     9    10   ar
    14    10    11   ar
    15    11    12    1
    16    12    13    1
    17    13    14    1
    18    14    19    1
    19    19    20    1
    20    20    21    1
    21    21    22    1
    22    14     2   am
    23    22    20    1
    24    11     3   ar
    25    10     5   ar
@<TRIPOS>MOLECULE
*****
 22 25 0 0 0
SMALL
GASTEIGER

@<TRIPOS>ATOM
      1 O         142.9393  139.9506  168.2650 O.2     1  UNL1       -0.2666
      2 C         141.7590  139.7660  167.3580 C.2     1  UNL1        0.2834
      3 C         141.9672  139.3584  165.9295 C.ar    1  UNL1        0.1985
      4 N         143.2087  139.0691  165.1390 N.ar    1  UNL1       -0.2227
      5 C         142.7956  138.7058  163.7435 C.ar    1  UNL1        0.0988
      6 C         143.5891  138.3244  162.5291 C.ar    1  UNL1        0.0206
      7 C         142.8857  138.0078  161.2427 C.ar    1  UNL1        0.0016
      8 C         141.3889  138.0725  161.1707 C.ar    1  UNL1        0.0054
      9 C         140.5954  138.4539  162.3851 C.ar    1  UNL1        0.0887
     10 C         141.2988  138.7706  163.6715 C.ar    1  UNL1        0.0829
     11 N         140.7868  139.1739  165.0225 N.ar    1  UNL1       -0.3061
     12 C         139.3982  139.3970  165.5441 C.3     1  UNL1        0.1291
     13 C         139.1900  139.8046  166.9725 C.3     1  UNL1        0.1183
     14 N         140.3704  139.9891  167.8795 N.am    1  UNL1       -0.2716
     15 C         139.0985  138.5187  162.3131 C.3     1  UNL1        0.4200
     16 F         137.6016  138.5834  162.2411 F       1  UNL1       -0.1658
     17 F         139.1892  139.8468  161.6219 F       1  UNL1       -0.1658
     18 F         139.0078  137.1906  163.0044 F       1  UNL1       -0.1658
     19 C         140.1621  140.3967  169.3080 C.3     1  UNL1        0.0938
     20 C         140.1249  141.8506  169.6753 C.3     1  UNL1        0.0199
     21 C         139.7684  142.9362  170.6470 C.3     1  UNL1        0.0018
     22 C         140.4169  143.2831  169.3397 C.3     1  UNL1        0.0018
@<TRIPOS>BOND
     1     1     2    2
     2     2     3    1
     3     3     4   ar
     4     4     5   ar
     5     5     6   ar
     6     6     7   ar
     7     7     8   ar
     8     8     9   ar
     9     9    15    1
    10    15    16    1
    11    15    17    1
    12    15    18    1
    13     9    10   ar
    14    10    11   ar
    15    11    12    1
    16    12    13    1
    17    13    14    1
    18    14    19    1
    19    19    20    1
    20    20    21    1
    21    21    22    1
    22    14     2   am
    23    22    20    1
    24    11     3   ar
    25    10     5   ar
@<TRIPOS>MOLECULE
*****
 22 25 0 0 0
SMALL
GASTEIGER

@<TRIPOS>ATOM
      1 O         139.6906  139.9181  167.0818 O.2     1  UNL1       -0.2666
      2 C         140.7657  140.7257  166.4171 C.2     1  UNL1        0.2834
      3 C         140.3977  141.8294  165.4703 C.ar    1  UNL1        0.1985
      4 N         139.0710  142.3485  165.0009 N.ar    1  UNL1       -0.2227
      5 C         139.3261  143.4769  164.0461 C.ar    1  UNL1        0.0988
      6 C         138.3986  144.3650  163.2710 C.ar    1  UNL1        0.0206
      7 C         138.9554  145.4315  162.3752 C.ar    1  UNL1        0.0016
      8 C         140.4399  145.6098  162.2545 C.ar    1  UNL1        0.0054
      9 C         141.3675  144.7217  163.0296 C.ar    1  UNL1        0.0887
     10 C         140.8106  143.6552  163.9254 C.ar    1  UNL1        0.0829
     11 N         141.4728  142.6371  164.8056 N.ar    1  UNL1       -0.3061
     12 C         142.9160  142.3410  165.0878 C.3     1  UNL1        0.1291
     13 C         143.2840  141.2373  166.0346 C.3     1  UNL1        0.1183
     14 N         142.2089  140.4297  166.6993 N.am    1  UNL1       -0.2716
     15 C         142.8519  144.9001  162.9090 C.3     1  UNL1        0.4200
     16 F         144.3364  145.0785  162.7883 F       1  UNL1       -0.1658
     17 F         142.8382  144.1394  161.6162 F       1  UNL1       -0.1658
     18 F         142.8656  145.6608  164.2017 F       1  UNL1       -0.1658
     19 C         142.5769  139.3260  167.6461 C.3     1  UNL1        0.0938
     20 C         142.3447  139.4925  169.1186 C.3     1  UNL1        0.0199
     21 C         142.8763  139.7596  170.4955 C.3     1  UNL1        0.0018
     22 C         141.4107  139.5136  170.2922 C.3     1  UNL1        0.0018
@<TRIPOS>BOND
     1     1     2    2
     2     2     3    1
     3     3     4   ar
     4     4     5   ar
     5     5     6   ar
     6     6     7   ar
     7     7     8   ar
     8     8     9   ar
     9     9    15    1
    10    15    16    1
    11    15    17    1
    12    15    18    1
    13     9    10   ar
    14    10    11   ar
    15    11    12    1
    16    12    13    1
    17    13    14    1
    18    14    19    1
    19    19    20    1
    20    20    21    1
    21    21    22    1
    22    14     2   am
    23    22    20    1
    24    11     3   ar
    25    10     5   ar
@<TRIPOS>MOLECULE
*****
 22 25 0 0 0
SMALL
GASTEIGER

@<TRIPOS>ATOM
      1 O         138.4757  139.5065  168.1760 O.2     1  UNL1       -0.2666
      2 C         139.6833  139.6968  167.3068 C.2     1  UNL1        0.2834
      3 C         139.6324  139.3128  165.8576 C.ar    1  UNL1        0.1985
      4 N         138.5403  138.7278  165.0120 N.ar    1  UNL1       -0.2227
      5 C         139.0729  138.5565  163.6203 C.ar    1  UNL1        0.0988
      6 C         138.4473  138.0261  162.3644 C.ar    1  UNL1        0.0206
      7 C         139.2431  137.9749  161.0939 C.ar    1  UNL1        0.0016
      8 C         140.6644  138.4541  161.0794 C.ar    1  UNL1        0.0054
      9 C         141.2900  138.9844  162.3353 C.ar    1  UNL1        0.0887
     10 C         140.4943  139.0356  163.6057 C.ar    1  UNL1        0.0829
     11 N         140.8400  139.5030  164.9885 N.ar    1  UNL1       -0.3061
     12 C         142.0985  140.0773  165.5684 C.3     1  UNL1        0.1291
     13 C         142.1494  140.4613  167.0176 C.3     1  UNL1        0.1183
     14 N         140.9418  140.2710  167.8867 N.am    1  UNL1       -0.2716
     15 C         142.7113  139.4635  162.3207 C.3     1  UNL1        0.4200
     16 F         144.1327  139.9427  162.3061 F       1  UNL1       -0.1658
     17 F         142.2369  140.8630  162.0631 F       1  UNL1       -0.1658
     18 F         143.1858  138.0641  162.5783 F       1  UNL1       -0.1658
     19 C         140.9927  140.6551  169.3359 C.3     1  UNL1        0.0938
     20 C         140.5193  142.0107  169.7696 C.3     1  UNL1        0.0199
     21 C         139.7409  142.8726  170.7190 C.3     1  UNL1        0.0018
     22 C         140.4779  143.4970  169.5714 C.3     1  UNL1        0.0018
@<TRIPOS>BOND
     1     1     2    2
     2     2     3    1
     3     3     4   ar
     4     4     5   ar
     5     5     6   ar
     6     6     7   ar
     7     7     8   ar
     8     8     9   ar
     9     9    15    1
    10    15    16    1
    11    15    17    1
    12    15    18    1
    13     9    10   ar
    14    10    11   ar
    15    11    12    1
    16    12    13    1
    17    13    14    1
    18    14    19    1
    19    19    20    1
    20    20    21    1
    21    21    22    1
    22    14     2   am
    23    22    20    1
    24    11     3   ar
    25    10     5   ar
@<TRIPOS>MOLECULE
*****
 22 25 0 0 0
SMALL
GASTEIGER

@<TRIPOS>ATOM
      1 O         138.0305  143.7082  161.9111 O.2     1  UNL1       -0.2666
      2 C         139.5067  143.4967  162.0723 C.2     1  UNL1        0.2834
      3 C         140.0813  143.2233  163.4307 C.ar    1  UNL1        0.1985
      4 N         139.4455  143.1045  164.7841 N.ar    1  UNL1       -0.2227
      5 C         140.5288  142.8196  165.7817 C.ar    1  UNL1        0.0988
      6 C         140.4953  142.6049  167.2659 C.ar    1  UNL1        0.0206
      7 C         141.7670  142.3330  168.0132 C.ar    1  UNL1        0.0016
      8 C         143.0724  142.2757  167.2764 C.ar    1  UNL1        0.0054
      9 C         143.1059  142.4903  165.7923 C.ar    1  UNL1        0.0887
     10 C         141.8341  142.7623  165.0449 C.ar    1  UNL1        0.0829
     11 N         141.5575  143.0118  163.5919 N.ar    1  UNL1       -0.3061
     12 C         142.4592  143.0737  162.3948 C.3     1  UNL1        0.1291
     13 C         141.8846  143.3471  161.0364 C.3     1  UNL1        0.1183
     14 N         140.4084  143.5586  160.8752 N.am    1  UNL1       -0.2716
     15 C         144.4112  142.4330  165.0555 C.3     1  UNL1        0.4200
     16 F         145.7165  142.3757  164.3187 F       1  UNL1       -0.1658
     17 F         144.7248  143.8301  165.5023 F       1  UNL1       -0.1658
     18 F         144.0976  141.0359  164.6086 F       1  UNL1       -0.1658
     19 C         139.8338  143.8321  159.5168 C.3     1  UNL1        0.0938
     20 C         140.4354  144.8970  158.6485 C.3     1  UNL1        0.0199
     21 C         141.6429  145.6046  158.1089 C.3     1  UNL1        0.0018
     22 C         140.2699  146.0340  157.6842 C.3     1  UNL1        0.0018
@<TRIPOS>BOND
     1     1     2    2
     2     2     3    1
     3     3     4   ar
     4     4     5   ar
     5     5     6   ar
     6     6     7   ar
     7     7     8   ar
     8     8     9   ar
     9     9    15    1
    10    15    16    1
    11    15    17    1
    12    15    18    1
    13     9    10   ar
    14    10    11   ar
    15    11    12    1
    16    12    13    1
    17    13    14    1
    18    14    19    1
    19    19    20    1
    20    20    21    1
    21    21    22    1
    22    14     2   am
    23    22    20    1
    24    11     3   ar
    25    10     5   ar
@<TRIPOS>MOLECULE
*****
 22 25 0 0 0
SMALL
GASTEIGER

@<TRIPOS>ATOM
      1 O         142.6180  141.7239  163.3450 O.2     1  UNL1       -0.2666
      2 C         141.6001  141.3922  164.3956 C.2     1  UNL1        0.2834
      3 C         141.9175  141.6154  165.8446 C.ar    1  UNL1        0.1985
      4 N         143.1396  142.1453  166.5343 N.ar    1  UNL1       -0.2227
      5 C         142.8770  142.1410  168.0111 C.ar    1  UNL1        0.0988
      6 C         143.7196  142.5531  169.1816 C.ar    1  UNL1        0.0206
      7 C         143.1778  142.4328  170.5751 C.ar    1  UNL1        0.0016
      8 C         141.7934  141.9003  170.7981 C.ar    1  UNL1        0.0054
      9 C         140.9507  141.4881  169.6277 C.ar    1  UNL1        0.0887
     10 C         141.4926  141.6084  168.2342 C.ar    1  UNL1        0.0829
     11 N         140.8996  141.2836  166.8952 N.ar    1  UNL1       -0.3061
     12 C         139.5642  140.7286  166.4968 C.3     1  UNL1        0.1291
     13 C         139.2468  140.5054  165.0479 C.3     1  UNL1        0.1183
     14 N         140.2647  140.8372  163.9973 N.am    1  UNL1       -0.2716
     15 C         139.5663  140.9556  169.8507 C.3     1  UNL1        0.4200
     16 F         138.1819  140.4230  170.0737 F       1  UNL1       -0.1658
     17 F         139.1182  142.3120  170.3081 F       1  UNL1       -0.1658
     18 F         140.0144  139.5991  169.3933 F       1  UNL1       -0.1658
     19 C         139.9472  140.6139  162.5483 C.3     1  UNL1        0.0938
     20 C         139.1404  139.4197  162.1326 C.3     1  UNL1        0.0199
     21 C         139.0728  137.9904  161.6826 C.3     1  UNL1        0.0018
     22 C         137.8105  138.7805  161.8627 C.3     1  UNL1        0.0018
@<TRIPOS>BOND
     1     1     2    2
     2     2     3    1
     3     3     4   ar
     4     4     5   ar
     5     5     6   ar
     6     6     7   ar
     7     7     8   ar
     8     8     9   ar
     9     9    15    1
    10    15    16    1
    11    15    17    1
    12    15    18    1
    13     9    10   ar
    14    10    11   ar
    15    11    12    1
    16    12    13    1
    17    13    14    1
    18    14    19    1
    19    19    20    1
    20    20    21    1
    21    21    22    1
    22    14     2   am
    23    22    20    1
    24    11     3   ar
    25    10     5   ar
@<TRIPOS>MOLECULE
*****
 22 25 0 0 0
SMALL
GASTEIGER

@<TRIPOS>ATOM
      1 O         137.9506  139.8408  165.3145 O.2     1  UNL1       -0.2666
      2 C         139.1082  140.7924  165.3815 C.2     1  UNL1        0.2834
      3 C         139.4487  141.6441  164.1946 C.ar    1  UNL1        0.1985
      4 N         138.8293  141.7629  162.8337 N.ar    1  UNL1       -0.2227
      5 C         139.6041  142.7879  162.0596 C.ar    1  UNL1        0.0988
      6 C         139.4514  143.3191  160.6652 C.ar    1  UNL1        0.0206
      7 C         140.3970  144.3649  160.1533 C.ar    1  UNL1        0.0016
      8 C         141.4953  144.8796  161.0359 C.ar    1  UNL1        0.0054
      9 C         141.6479  144.3484  162.4303 C.ar    1  UNL1        0.0887
     10 C         140.7023  143.3026  162.9422 C.ar    1  UNL1        0.0829
     11 N         140.6063  142.5956  164.2617 N.ar    1  UNL1       -0.3061
     12 C         141.4234  142.6955  165.5156 C.3     1  UNL1        0.1291
     13 C         141.0829  141.8438  166.7025 C.3     1  UNL1        0.1183
     14 N         139.9253  140.8922  166.6354 N.am    1  UNL1       -0.2716
     15 C         142.7462  144.8630  163.3129 C.3     1  UNL1        0.4200
     16 F         143.8445  145.3777  164.1955 F       1  UNL1       -0.1658
     17 F         143.7129  143.9204  162.6596 F       1  UNL1       -0.1658
     18 F         141.7794  145.8057  163.9662 F       1  UNL1       -0.1658
     19 C         139.5848  140.0405  167.8223 C.3     1  UNL1        0.0938
     20 C         139.7892  140.5717  169.2101 C.3     1  UNL1        0.0199
     21 C         140.3039  140.3913  170.6074 C.3     1  UNL1        0.0018
     22 C         139.6287  141.6724  170.2165 C.3     1  UNL1        0.0018
@<TRIPOS>BOND
     1     1     2    2
     2     2     3    1
     3     3     4   ar
     4     4     5   ar
     5     5     6   ar
     6     6     7   ar
     7     7     8   ar
     8     8     9   ar
     9     9    15    1
    10    15    16    1
    11    15    17    1
    12    15    18    1
    13     9    10   ar
    14    10    11   ar
    15    11    12    1
    16    12    13    1
    17    13    14    1
    18    14    19    1
    19    19    20    1
    20    20    21    1
    21    21    22    1
    22    14     2   am
    23    22    20    1
    24    11     3   ar
    25    10     5   ar
