@<TRIPOS>MOLECULE
*****
 35 39 0 0 0
SMALL
GASTEIGER

@<TRIPOS>ATOM
      1 C         141.7275  141.7667  162.0405 C.ar    1  UNL1        0.1458
      2 N         141.4775  141.2958  160.6383 N.ar    1  UNL1       -0.2249
      3 C         140.2193  141.6954  159.9262 C.ar    1  UNL1        0.1260
      4 C         139.7027  141.3873  158.5521 C.ar    1  UNL1        0.1212
      5 N         138.3752  142.0672  158.3927 N.ar    1  UNL1       -0.2265
      6 N         138.0713  142.7956  159.6684 N.ar    1  UNL1       -0.1586
      7 C         139.2111  142.5657  160.6161 C.ar    1  UNL1        0.1762
      8 C         139.4611  143.0365  162.0182 C.ar    1  UNL1        0.2829
      9 O         138.4529  143.9069  162.7081 O.2     1  UNL1       -0.2652
     10 N         140.7193  142.6370  162.7303 N.ar    1  UNL1       -0.2793
     11 C         144.1035  143.5982  162.0296 C.3     1  UNL1        0.0311
     12 C         144.1738  142.2829  162.7472 C.ar    1  UNL1       -0.0189
     13 C         145.4320  141.8833  163.4594 C.ar    1  UNL1       -0.0042
     14 C         145.5022  140.5680  164.1770 C.ar    1  UNL1       -0.0003
     15 C         144.3142  139.6522  164.1825 C.ar    1  UNL1        0.0001
     16 C         143.0560  140.0518  163.4703 C.ar    1  UNL1        0.0027
     17 C         142.9858  141.3671  162.7527 C.ar    1  UNL1        0.0303
     18 C         137.5044  142.0261  157.1721 C.ar    1  UNL1        0.0829
     19 C         136.6422  140.8279  156.9059 C.ar    1  UNL1        0.0198
     20 C         135.7714  140.7868  155.6851 C.ar    1  UNL1        0.0118
     21 C         135.7628  141.9439  154.7307 C.ar    1  UNL1        0.0685
     22 C         136.6250  143.1422  154.9969 C.ar    1  UNL1        0.0118
     23 C         137.4958  143.1832  156.2176 C.ar    1  UNL1        0.0198
     24 C         134.8920  141.9028  153.5100 C.1     1  UNL1        0.1004
     25 N         134.0213  141.8617  152.2894 N.1     1  UNL1       -0.1908
     26 C         140.9693  143.1078  164.1325 C.3     1  UNL1        0.1119
     27 C         140.5678  142.2491  165.2948 C.3     1  UNL1        0.0388
     28 C         140.9279  142.6611  166.6915 C.3     1  UNL1        0.0048
     29 C         140.5264  141.8023  167.8539 C.3     1  UNL1        0.0174
     30 C         139.7647  140.5314  167.6196 C.3     1  UNL1        0.0720
     31 N         139.4046  140.1193  166.2230 N.3     1  UNL1       -0.2739
     32 C         139.8061  140.9782  165.0606 C.3     1  UNL1        0.0739
     33 C         138.6429  138.8485  165.9889 C.3     1  UNL1        0.0576
     34 C         137.5971  138.4092  166.9702 C.3     1  UNL1        0.0173
     35 C         138.9272  138.0169  164.7732 C.3     1  UNL1        0.0173
@<TRIPOS>BOND
     1    11    12    1
     2    12    13   ar
     3    13    14   ar
     4    14    15   ar
     5    15    16   ar
     6    16    17   ar
     7    17     1    1
     8     1     2   ar
     9     2     3   ar
    10     3     4   ar
    11     4     5   ar
    12     5    18    1
    13    18    19   ar
    14    19    20   ar
    15    20    21   ar
    16    21    24    1
    17    24    25    3
    18    21    22   ar
    19    22    23   ar
    20     5     6   ar
    21     6     7   ar
    22     7     8   ar
    23     8     9    2
    24     8    10   ar
    25    10    26    1
    26    26    27    1
    27    27    28    1
    28    28    29    1
    29    29    30    1
    30    30    31    1
    31    31    33    1
    32    33    34    1
    33    33    35    1
    34    31    32    1
    35    17    12   ar
    36    10     1   ar
    37    32    27    1
    38     7     3   ar
    39    23    18   ar
@<TRIPOS>MOLECULE
*****
 35 39 0 0 0
SMALL
GASTEIGER

@<TRIPOS>ATOM
      1 C         140.6476  142.2979  161.9166 C.ar    1  UNL1        0.1458
      2 N         141.6769  143.0662  161.1417 N.ar    1  UNL1       -0.2249
      3 C         142.5457  142.3598  160.1436 C.ar    1  UNL1        0.1260
      4 C         143.6375  142.8495  159.2391 C.ar    1  UNL1        0.1212
      5 N         144.1518  141.6775  158.4569 N.ar    1  UNL1       -0.2265
      6 N         143.3778  140.4635  158.8779 N.ar    1  UNL1       -0.1586
      7 C         142.3852  140.8852  159.9204 C.ar    1  UNL1        0.1762
      8 C         141.3559  140.1170  160.6952 C.ar    1  UNL1        0.2829
      9 O         141.1954  138.6424  160.4719 O.2     1  UNL1       -0.2652
     10 N         140.4871  140.8234  161.6933 N.ar    1  UNL1       -0.2793
     11 C         141.7285  142.9765  164.6315 C.3     1  UNL1        0.0311
     12 C         140.3192  143.3436  164.2722 C.ar    1  UNL1       -0.0189
     13 C         139.4504  144.0499  165.2703 C.ar    1  UNL1       -0.0042
     14 C         138.0411  144.4170  164.9109 C.ar    1  UNL1       -0.0003
     15 C         137.5006  144.0777  163.5534 C.ar    1  UNL1        0.0001
     16 C         138.3694  143.3713  162.5553 C.ar    1  UNL1        0.0027
     17 C         139.7787  143.0043  162.9147 C.ar    1  UNL1        0.0303
     18 C         145.2477  141.7132  157.4333 C.ar    1  UNL1        0.0829
     19 C         146.3992  142.6599  157.6000 C.ar    1  UNL1        0.0198
     20 C         147.4950  142.6956  156.5763 C.ar    1  UNL1        0.0118
     21 C         147.4394  141.7845  155.3860 C.ar    1  UNL1        0.0685
     22 C         146.2880  140.8378  155.2192 C.ar    1  UNL1        0.0118
     23 C         145.1921  140.8022  156.2429 C.ar    1  UNL1        0.0198
     24 C         148.5353  141.8203  154.3624 C.1     1  UNL1        0.1004
     25 N         149.6311  141.8560  153.3388 N.1     1  UNL1       -0.1908
     26 C         139.4578  140.0551  162.4681 C.3     1  UNL1        0.1119
     27 C         139.5984  139.9002  163.9534 C.3     1  UNL1        0.0388
     28 C         138.3993  140.0578  164.8408 C.3     1  UNL1        0.0048
     29 C         138.5400  139.9029  166.3261 C.3     1  UNL1        0.0174
     30 C         139.8797  139.5904  166.9241 C.3     1  UNL1        0.0720
     31 N         141.0788  139.4328  166.0367 N.3     1  UNL1       -0.2739
     32 C         140.9381  139.5877  164.5514 C.3     1  UNL1        0.0739
     33 C         142.4184  139.1202  166.6347 C.3     1  UNL1        0.0576
     34 C         142.7148  139.5059  168.0536 C.3     1  UNL1        0.0173
     35 C         143.4618  138.4220  165.8136 C.3     1  UNL1        0.0173
@<TRIPOS>BOND
     1    11    12    1
     2    12    13   ar
     3    13    14   ar
     4    14    15   ar
     5    15    16   ar
     6    16    17   ar
     7    17     1    1
     8     1     2   ar
     9     2     3   ar
    10     3     4   ar
    11     4     5   ar
    12     5    18    1
    13    18    19   ar
    14    19    20   ar
    15    20    21   ar
    16    21    24    1
    17    24    25    3
    18    21    22   ar
    19    22    23   ar
    20     5     6   ar
    21     6     7   ar
    22     7     8   ar
    23     8     9    2
    24     8    10   ar
    25    10    26    1
    26    26    27    1
    27    27    28    1
    28    28    29    1
    29    29    30    1
    30    30    31    1
    31    31    33    1
    32    33    34    1
    33    33    35    1
    34    31    32    1
    35    17    12   ar
    36    10     1   ar
    37    32    27    1
    38     7     3   ar
    39    23    18   ar
@<TRIPOS>MOLECULE
*****
 35 39 0 0 0
SMALL
GASTEIGER

@<TRIPOS>ATOM
      1 C         141.3820  142.2931  162.4390 C.ar    1  UNL1        0.1458
      2 N         141.8272  141.6551  161.1564 N.ar    1  UNL1       -0.2249
      3 C         140.8150  141.0528  160.2275 C.ar    1  UNL1        0.1260
      4 C         140.9541  140.3608  158.9040 C.ar    1  UNL1        0.1212
      5 N         139.5827  139.9688  158.4397 N.ar    1  UNL1       -0.2265
      6 N         138.5961  140.4185  159.4762 N.ar    1  UNL1       -0.1586
      7 C         139.3578  141.0885  160.5812 C.ar    1  UNL1        0.1762
      8 C         138.9126  141.7264  161.8637 C.ar    1  UNL1        0.2829
      9 O         137.4553  141.7621  162.2174 O.2     1  UNL1       -0.2652
     10 N         139.9248  142.3287  162.7926 N.ar    1  UNL1       -0.2793
     11 C         142.7724  140.5701  164.4633 C.3     1  UNL1        0.0311
     12 C         143.0894  142.0339  164.3801 C.ar    1  UNL1       -0.0189
     13 C         144.1015  142.6362  165.3089 C.ar    1  UNL1       -0.0042
     14 C         144.4184  144.1000  165.2256 C.ar    1  UNL1       -0.0003
     15 C         143.7232  144.9615  164.2134 C.ar    1  UNL1        0.0001
     16 C         142.7111  144.3592  163.2846 C.ar    1  UNL1        0.0027
     17 C         142.3942  142.8954  163.3679 C.ar    1  UNL1        0.0303
     18 C         139.2553  139.2527  157.1629 C.ar    1  UNL1        0.0829
     19 C         138.5019  139.9621  156.0771 C.ar    1  UNL1        0.0198
     20 C         138.1746  139.2460  154.8003 C.ar    1  UNL1        0.0118
     21 C         138.6006  137.8205  154.6094 C.ar    1  UNL1        0.0685
     22 C         139.3540  137.1111  155.6952 C.ar    1  UNL1        0.0118
     23 C         139.6814  137.8272  156.9720 C.ar    1  UNL1        0.0198
     24 C         138.2732  137.1045  153.3326 C.1     1  UNL1        0.1004
     25 N         137.9459  136.3884  152.0560 N.1     1  UNL1       -0.1908
     26 C         139.4796  142.9667  164.0751 C.3     1  UNL1        0.1119
     27 C         139.6408  142.2329  165.3733 C.3     1  UNL1        0.0388
     28 C         139.1037  140.8399  165.5192 C.3     1  UNL1        0.0048
     29 C         139.2650  140.1060  166.8174 C.3     1  UNL1        0.0174
     30 C         139.9632  140.7651  167.9698 C.3     1  UNL1        0.0720
     31 N         140.5003  142.1581  167.8240 N.3     1  UNL1       -0.2739
     32 C         140.3390  142.8919  166.5257 C.3     1  UNL1        0.0739
     33 C         141.1985  142.8171  168.9764 C.3     1  UNL1        0.0576
     34 C         142.6357  142.4985  169.2641 C.3     1  UNL1        0.0173
     35 C         140.4594  143.7949  169.8412 C.3     1  UNL1        0.0173
@<TRIPOS>BOND
     1    11    12    1
     2    12    13   ar
     3    13    14   ar
     4    14    15   ar
     5    15    16   ar
     6    16    17   ar
     7    17     1    1
     8     1     2   ar
     9     2     3   ar
    10     3     4   ar
    11     4     5   ar
    12     5    18    1
    13    18    19   ar
    14    19    20   ar
    15    20    21   ar
    16    21    24    1
    17    24    25    3
    18    21    22   ar
    19    22    23   ar
    20     5     6   ar
    21     6     7   ar
    22     7     8   ar
    23     8     9    2
    24     8    10   ar
    25    10    26    1
    26    26    27    1
    27    27    28    1
    28    28    29    1
    29    29    30    1
    30    30    31    1
    31    31    33    1
    32    33    34    1
    33    33    35    1
    34    31    32    1
    35    17    12   ar
    36    10     1   ar
    37    32    27    1
    38     7     3   ar
    39    23    18   ar
@<TRIPOS>MOLECULE
*****
 35 39 0 0 0
SMALL
GASTEIGER

@<TRIPOS>ATOM
      1 C         141.0309  142.2670  162.0116 C.ar    1  UNL1        0.1458
      2 N         141.7663  143.0335  160.9525 N.ar    1  UNL1       -0.2249
      3 C         142.7247  142.3242  160.0424 C.ar    1  UNL1        0.1260
      4 C         143.5858  142.8116  158.9151 C.ar    1  UNL1        0.1212
      5 N         144.3409  141.6370  158.3673 N.ar    1  UNL1       -0.2265
      6 N         143.9466  140.4236  159.1561 N.ar    1  UNL1       -0.1586
      7 C         142.9476  140.8483  160.1914 C.ar    1  UNL1        0.1762
      8 C         142.2122  140.0818  161.2505 C.ar    1  UNL1        0.2829
      9 O         142.4352  138.6060  161.3994 O.2     1  UNL1       -0.2652
     10 N         141.2539  140.7912  162.1606 N.ar    1  UNL1       -0.2793
     11 C         142.0405  143.6232  164.4898 C.3     1  UNL1        0.0311
     12 C         140.5773  143.6545  164.1609 C.ar    1  UNL1       -0.0189
     13 C         139.6189  144.3638  165.0710 C.ar    1  UNL1       -0.0042
     14 C         138.1558  144.3950  164.7421 C.ar    1  UNL1       -0.0003
     15 C         137.6510  143.7169  163.5030 C.ar    1  UNL1        0.0001
     16 C         138.6093  143.0075  162.5929 C.ar    1  UNL1        0.0027
     17 C         140.0725  142.9763  162.9218 C.ar    1  UNL1        0.0303
     18 C         145.3188  141.6700  157.2304 C.ar    1  UNL1        0.0829
     19 C         145.1138  140.7823  156.0388 C.ar    1  UNL1        0.0198
     20 C         146.0918  140.8153  154.9018 C.ar    1  UNL1        0.0118
     21 C         147.2747  141.7360  154.9565 C.ar    1  UNL1        0.0685
     22 C         147.4797  142.6238  156.1481 C.ar    1  UNL1        0.0118
     23 C         146.5017  142.5907  157.2850 C.ar    1  UNL1        0.0198
     24 C         148.2526  141.7690  153.8195 C.1     1  UNL1        0.1004
     25 N         149.2304  141.8019  152.6826 N.1     1  UNL1       -0.1908
     26 C         140.5185  140.0246  163.2197 C.3     1  UNL1        0.1119
     27 C         141.0875  139.9235  164.6038 C.3     1  UNL1        0.0388
     28 C         142.3486  139.1468  164.8415 C.3     1  UNL1        0.0048
     29 C         142.9175  139.0457  166.2257 C.3     1  UNL1        0.0174
     30 C         142.2255  139.7214  167.3723 C.3     1  UNL1        0.0720
     31 N         140.9644  140.4981  167.1347 N.3     1  UNL1       -0.2739
     32 C         140.3955  140.5991  165.7504 C.3     1  UNL1        0.0739
     33 C         140.2724  141.1737  168.2813 C.3     1  UNL1        0.0576
     34 C         140.4707  142.6416  168.5171 C.3     1  UNL1        0.0173
     35 C         139.3821  140.3811  169.1920 C.3     1  UNL1        0.0173
@<TRIPOS>BOND
     1    11    12    1
     2    12    13   ar
     3    13    14   ar
     4    14    15   ar
     5    15    16   ar
     6    16    17   ar
     7    17     1    1
     8     1     2   ar
     9     2     3   ar
    10     3     4   ar
    11     4     5   ar
    12     5    18    1
    13    18    19   ar
    14    19    20   ar
    15    20    21   ar
    16    21    24    1
    17    24    25    3
    18    21    22   ar
    19    22    23   ar
    20     5     6   ar
    21     6     7   ar
    22     7     8   ar
    23     8     9    2
    24     8    10   ar
    25    10    26    1
    26    26    27    1
    27    27    28    1
    28    28    29    1
    29    29    30    1
    30    30    31    1
    31    31    33    1
    32    33    34    1
    33    33    35    1
    34    31    32    1
    35    17    12   ar
    36    10     1   ar
    37    32    27    1
    38     7     3   ar
    39    23    18   ar
@<TRIPOS>MOLECULE
*****
 35 39 0 0 0
SMALL
GASTEIGER

@<TRIPOS>ATOM
      1 C         141.5030  143.1646  162.6903 C.ar    1  UNL1        0.1458
      2 N         141.5428  143.2391  161.1926 N.ar    1  UNL1       -0.2249
      3 C         142.8186  142.9445  160.4609 C.ar    1  UNL1        0.1260
      4 C         143.1592  142.9376  159.0001 C.ar    1  UNL1        0.1212
      5 N         144.6055  142.5644  158.8631 N.ar    1  UNL1       -0.2265
      6 N         145.1589  142.3405  160.2392 N.ar    1  UNL1       -0.1586
      7 C         144.0545  142.5754  161.2267 C.ar    1  UNL1        0.1762
      8 C         144.0145  142.5009  162.7243 C.ar    1  UNL1        0.2829
      9 O         145.2504  142.1319  163.4901 O.2     1  UNL1       -0.2652
     10 N         142.7387  142.7955  163.4561 N.ar    1  UNL1       -0.2793
     11 C         139.1959  141.2552  162.5116 C.3     1  UNL1        0.0311
     12 C         139.0736  142.5045  163.3328 C.ar    1  UNL1       -0.0189
     13 C         137.7978  142.7991  164.0646 C.ar    1  UNL1       -0.0042
     14 C         137.6755  144.0484  164.8858 C.ar    1  UNL1       -0.0003
     15 C         138.8290  145.0031  164.9752 C.ar    1  UNL1        0.0001
     16 C         140.1048  144.7085  164.2434 C.ar    1  UNL1        0.0027
     17 C         140.2271  143.4592  163.4222 C.ar    1  UNL1        0.0303
     18 C         145.3652  142.4373  157.5759 C.ar    1  UNL1        0.0829
     19 C         144.6722  141.9401  156.3420 C.ar    1  UNL1        0.0198
     20 C         145.4320  141.8130  155.0548 C.ar    1  UNL1        0.0118
     21 C         146.8846  142.1831  155.0016 C.ar    1  UNL1        0.0685
     22 C         147.5776  142.6803  156.2355 C.ar    1  UNL1        0.0118
     23 C         146.8178  142.8073  157.5227 C.ar    1  UNL1        0.0198
     24 C         147.6443  142.0560  153.7144 C.1     1  UNL1        0.1004
     25 N         148.4039  141.9289  152.4274 N.1     1  UNL1       -0.1908
     26 C         142.6989  142.7210  164.9538 C.3     1  UNL1        0.1119
     27 C         141.7478  141.7808  165.6329 C.3     1  UNL1        0.0388
     28 C         141.0510  142.1996  166.8936 C.3     1  UNL1        0.0048
     29 C         140.1000  141.2593  167.5727 C.3     1  UNL1        0.0174
     30 C         139.8455  139.9002  166.9911 C.3     1  UNL1        0.0720
     31 N         140.5422  139.4814  165.7305 N.3     1  UNL1       -0.2739
     32 C         141.4934  140.4217  165.0514 C.3     1  UNL1        0.0739
     33 C         140.2878  138.1223  165.1491 C.3     1  UNL1        0.0576
     34 C         141.4224  137.3292  164.5715 C.3     1  UNL1        0.0173
     35 C         138.8986  137.5563  165.1452 C.3     1  UNL1        0.0173
@<TRIPOS>BOND
     1    11    12    1
     2    12    13   ar
     3    13    14   ar
     4    14    15   ar
     5    15    16   ar
     6    16    17   ar
     7    17     1    1
     8     1     2   ar
     9     2     3   ar
    10     3     4   ar
    11     4     5   ar
    12     5    18    1
    13    18    19   ar
    14    19    20   ar
    15    20    21   ar
    16    21    24    1
    17    24    25    3
    18    21    22   ar
    19    22    23   ar
    20     5     6   ar
    21     6     7   ar
    22     7     8   ar
    23     8     9    2
    24     8    10   ar
    25    10    26    1
    26    26    27    1
    27    27    28    1
    28    28    29    1
    29    29    30    1
    30    30    31    1
    31    31    33    1
    32    33    34    1
    33    33    35    1
    34    31    32    1
    35    17    12   ar
    36    10     1   ar
    37    32    27    1
    38     7     3   ar
    39    23    18   ar
@<TRIPOS>MOLECULE
*****
 35 39 0 0 0
SMALL
GASTEIGER

@<TRIPOS>ATOM
      1 C         140.1139  140.3537  163.5184 C.ar    1  UNL1        0.1458
      2 N         139.3301  141.0538  162.4480 N.ar    1  UNL1       -0.2249
      3 C         140.0402  141.8842  161.4203 C.ar    1  UNL1        0.1260
      4 C         139.5382  142.6843  160.2550 C.ar    1  UNL1        0.1212
      5 N         140.7217  143.3091  159.5776 N.ar    1  UNL1       -0.2265
      6 N         141.9551  142.8952  160.3242 N.ar    1  UNL1       -0.1586
      7 C         141.5339  142.0145  161.4630 C.ar    1  UNL1        0.1762
      8 C         142.3176  141.3145  162.5335 C.ar    1  UNL1        0.2829
      9 O         143.8113  141.4448  162.5762 O.2     1  UNL1       -0.2652
     10 N         141.6075  140.4841  163.5612 N.ar    1  UNL1       -0.2793
     11 C         139.8178  137.3960  163.1133 C.3     1  UNL1        0.0311
     12 C         139.2557  138.0444  164.3436 C.ar    1  UNL1       -0.0189
     13 C         138.5456  137.2140  165.3713 C.ar    1  UNL1       -0.0042
     14 C         137.9836  137.8624  166.6016 C.ar    1  UNL1       -0.0003
     15 C         138.1316  139.3413  166.8042 C.ar    1  UNL1        0.0001
     16 C         138.8417  140.1717  165.7765 C.ar    1  UNL1        0.0027
     17 C         139.4037  139.5232  164.5462 C.ar    1  UNL1        0.0303
     18 C         140.6792  144.1927  158.3662 C.ar    1  UNL1        0.0829
     19 C         139.5269  144.1003  157.4104 C.ar    1  UNL1        0.0198
     20 C         139.4845  144.9839  156.1991 C.ar    1  UNL1        0.0118
     21 C         140.5944  145.9600  155.9435 C.ar    1  UNL1        0.0685
     22 C         141.7468  146.0525  156.8993 C.ar    1  UNL1        0.0118
     23 C         141.7891  145.1688  158.1107 C.ar    1  UNL1        0.0198
     24 C         140.5520  146.8437  154.7321 C.1     1  UNL1        0.1004
     25 N         140.5095  147.7272  153.5208 N.1     1  UNL1       -0.1908
     26 C         142.3912  139.7840  164.6316 C.3     1  UNL1        0.1119
     27 C         142.5416  140.4139  165.9845 C.3     1  UNL1        0.0388
     28 C         143.0700  141.8125  166.1061 C.3     1  UNL1        0.0048
     29 C         143.2204  142.4425  167.4590 C.3     1  UNL1        0.0174
     30 C         142.8423  141.6738  168.6905 C.3     1  UNL1        0.0720
     31 N         142.3139  140.2753  168.5689 N.3     1  UNL1       -0.2739
     32 C         142.1635  139.6454  167.2159 C.3     1  UNL1        0.0739
     33 C         141.9359  139.5067  169.8003 C.3     1  UNL1        0.0576
     34 C         142.7706  138.3418  170.2431 C.3     1  UNL1        0.0173
     35 C         140.7230  139.9032  170.5890 C.3     1  UNL1        0.0173
@<TRIPOS>BOND
     1    11    12    1
     2    12    13   ar
     3    13    14   ar
     4    14    15   ar
     5    15    16   ar
     6    16    17   ar
     7    17     1    1
     8     1     2   ar
     9     2     3   ar
    10     3     4   ar
    11     4     5   ar
    12     5    18    1
    13    18    19   ar
    14    19    20   ar
    15    20    21   ar
    16    21    24    1
    17    24    25    3
    18    21    22   ar
    19    22    23   ar
    20     5     6   ar
    21     6     7   ar
    22     7     8   ar
    23     8     9    2
    24     8    10   ar
    25    10    26    1
    26    26    27    1
    27    27    28    1
    28    28    29    1
    29    29    30    1
    30    30    31    1
    31    31    33    1
    32    33    34    1
    33    33    35    1
    34    31    32    1
    35    17    12   ar
    36    10     1   ar
    37    32    27    1
    38     7     3   ar
    39    23    18   ar
@<TRIPOS>MOLECULE
*****
 35 39 0 0 0
SMALL
GASTEIGER

@<TRIPOS>ATOM
      1 C         142.2284  141.5910  161.7501 C.ar    1  UNL1        0.1458
      2 N         143.0360  140.8158  160.7515 N.ar    1  UNL1       -0.2249
      3 C         142.3536  139.8739  159.8043 C.ar    1  UNL1        0.1260
      4 C         142.8827  138.9826  158.7201 C.ar    1  UNL1        0.1212
      5 N         141.7198  138.2650  158.1013 N.ar    1  UNL1       -0.2265
      6 N         140.4720  138.7129  158.8031 N.ar    1  UNL1       -0.1586
      7 C         140.8637  139.7073  159.8556 C.ar    1  UNL1        0.1762
      8 C         140.0563  140.4825  160.8542 C.ar    1  UNL1        0.2829
      9 O         138.5665  140.3158  160.9055 O.2     1  UNL1       -0.2652
     10 N         140.7387  141.4243  161.8014 N.ar    1  UNL1       -0.2793
     11 C         143.4145  140.5533  164.3028 C.3     1  UNL1        0.0311
     12 C         143.5039  142.0141  163.9737 C.ar    1  UNL1       -0.0189
     13 C         144.1862  142.9560  164.9209 C.ar    1  UNL1       -0.0042
     14 C         144.2756  144.4167  164.5917 C.ar    1  UNL1       -0.0003
     15 C         143.6826  144.9355  163.3154 C.ar    1  UNL1        0.0001
     16 C         143.0002  143.9936  162.3682 C.ar    1  UNL1        0.0027
     17 C         142.9109  142.5329  162.6973 C.ar    1  UNL1        0.0303
     18 C         141.7920  137.2737  156.9779 C.ar    1  UNL1        0.0829
     19 C         140.5938  137.0389  156.1066 C.ar    1  UNL1        0.0198
     20 C         140.6661  136.0475  154.9832 C.ar    1  UNL1        0.0118
     21 C         141.9365  135.2909  154.7312 C.ar    1  UNL1        0.0685
     22 C         143.1347  135.5256  155.6025 C.ar    1  UNL1        0.0118
     23 C         143.0624  136.5170  156.7259 C.ar    1  UNL1        0.0198
     24 C         142.0087  134.2995  153.6078 C.1     1  UNL1        0.1004
     25 N         142.0809  133.3081  152.4845 N.1     1  UNL1       -0.1908
     26 C         139.9311  142.1996  162.7999 C.3     1  UNL1        0.1119
     27 C         139.8094  141.7063  164.2111 C.3     1  UNL1        0.0388
     28 C         140.3153  142.5469  165.3458 C.3     1  UNL1        0.0048
     29 C         140.1935  142.0536  166.7571 C.3     1  UNL1        0.0174
     30 C         139.5658  140.7195  167.0338 C.3     1  UNL1        0.0720
     31 N         139.0600  139.8789  165.8991 N.3     1  UNL1       -0.2739
     32 C         139.1818  140.3723  164.4878 C.3     1  UNL1        0.0739
     33 C         138.4323  138.5449  166.1758 C.3     1  UNL1        0.0576
     34 C         138.7645  137.3658  165.3103 C.3     1  UNL1        0.0173
     35 C         137.4725  138.3901  167.3182 C.3     1  UNL1        0.0173
@<TRIPOS>BOND
     1    11    12    1
     2    12    13   ar
     3    13    14   ar
     4    14    15   ar
     5    15    16   ar
     6    16    17   ar
     7    17     1    1
     8     1     2   ar
     9     2     3   ar
    10     3     4   ar
    11     4     5   ar
    12     5    18    1
    13    18    19   ar
    14    19    20   ar
    15    20    21   ar
    16    21    24    1
    17    24    25    3
    18    21    22   ar
    19    22    23   ar
    20     5     6   ar
    21     6     7   ar
    22     7     8   ar
    23     8     9    2
    24     8    10   ar
    25    10    26    1
    26    26    27    1
    27    27    28    1
    28    28    29    1
    29    29    30    1
    30    30    31    1
    31    31    33    1
    32    33    34    1
    33    33    35    1
    34    31    32    1
    35    17    12   ar
    36    10     1   ar
    37    32    27    1
    38     7     3   ar
    39    23    18   ar
@<TRIPOS>MOLECULE
*****
 35 39 0 0 0
SMALL
GASTEIGER

@<TRIPOS>ATOM
      1 C         141.6821  140.4761  161.8367 C.ar    1  UNL1        0.1458
      2 N         142.3834  139.8169  160.6861 N.ar    1  UNL1       -0.2249
      3 C         143.2184  140.6368  159.7477 C.ar    1  UNL1        0.1260
      4 C         144.0206  140.2680  158.5351 C.ar    1  UNL1        0.1212
      5 N         144.6501  141.5190  157.9978 N.ar    1  UNL1       -0.2265
      6 N         144.2369  142.6609  158.8784 N.ar    1  UNL1       -0.1586
      7 C         143.3521  142.1157  159.9599 C.ar    1  UNL1        0.1762
      8 C         142.6508  142.7747  161.1105 C.ar    1  UNL1        0.2829
      9 O         142.7844  144.2536  161.3226 O.2     1  UNL1       -0.2652
     10 N         141.8158  141.9549  162.0489 N.ar    1  UNL1       -0.2793
     11 C         142.9772  139.0324  164.1255 C.3     1  UNL1        0.0311
     12 C         141.4946  138.9344  163.9196 C.ar    1  UNL1       -0.0189
     13 C         140.6596  138.1145  164.8580 C.ar    1  UNL1       -0.0042
     14 C         139.1770  138.0165  164.6521 C.ar    1  UNL1       -0.0003
     15 C         138.5295  138.7383  163.5077 C.ar    1  UNL1        0.0001
     16 C         139.3645  139.5581  162.5692 C.ar    1  UNL1        0.0027
     17 C         140.8470  139.6562  162.7752 C.ar    1  UNL1        0.0303
     18 C         145.5371  141.6119  156.7917 C.ar    1  UNL1        0.0829
     19 C         145.1982  140.8411  155.5504 C.ar    1  UNL1        0.0198
     20 C         146.0852  140.9340  154.3443 C.ar    1  UNL1        0.0118
     21 C         147.3111  141.7976  154.3796 C.ar    1  UNL1        0.0685
     22 C         147.6500  142.5684  155.6209 C.ar    1  UNL1        0.0118
     23 C         146.7630  142.4755  156.8270 C.ar    1  UNL1        0.0198
     24 C         148.1981  141.8905  153.1735 C.1     1  UNL1        0.1004
     25 N         149.0850  141.9833  151.9675 N.1     1  UNL1       -0.1908
     26 C         141.1145  142.6140  163.1995 C.3     1  UNL1        0.1119
     27 C         141.6624  142.4781  164.5891 C.3     1  UNL1        0.0388
     28 C         143.1107  142.7640  164.8556 C.3     1  UNL1        0.0048
     29 C         143.6586  142.6281  166.2452 C.3     1  UNL1        0.0174
     30 C         142.7584  142.2063  167.3685 C.3     1  UNL1        0.0720
     31 N         141.3102  141.9204  167.1021 N.3     1  UNL1       -0.2739
     32 C         140.7623  142.0563  165.7124 C.3     1  UNL1        0.0739
     33 C         140.4101  141.4986  168.2254 C.3     1  UNL1        0.0576
     34 C         140.2775  142.3618  169.4448 C.3     1  UNL1        0.0173
     35 C         139.6424  140.2134  168.1291 C.3     1  UNL1        0.0173
@<TRIPOS>BOND
     1    11    12    1
     2    12    13   ar
     3    13    14   ar
     4    14    15   ar
     5    15    16   ar
     6    16    17   ar
     7    17     1    1
     8     1     2   ar
     9     2     3   ar
    10     3     4   ar
    11     4     5   ar
    12     5    18    1
    13    18    19   ar
    14    19    20   ar
    15    20    21   ar
    16    21    24    1
    17    24    25    3
    18    21    22   ar
    19    22    23   ar
    20     5     6   ar
    21     6     7   ar
    22     7     8   ar
    23     8     9    2
    24     8    10   ar
    25    10    26    1
    26    26    27    1
    27    27    28    1
    28    28    29    1
    29    29    30    1
    30    30    31    1
    31    31    33    1
    32    33    34    1
    33    33    35    1
    34    31    32    1
    35    17    12   ar
    36    10     1   ar
    37    32    27    1
    38     7     3   ar
    39    23    18   ar
@<TRIPOS>MOLECULE
*****
 35 39 0 0 0
SMALL
GASTEIGER

@<TRIPOS>ATOM
      1 C         141.0437  141.5657  162.2364 C.ar    1  UNL1        0.1458
      2 N         140.3441  140.9777  161.0469 N.ar    1  UNL1       -0.2249
      3 C         141.0456  139.9676  160.1880 C.ar    1  UNL1        0.1260
      4 C         140.6138  139.2205  158.9611 C.ar    1  UNL1        0.1212
      5 N         141.7478  138.3367  158.5335 N.ar    1  UNL1       -0.2265
      6 N         142.8805  138.5376  159.4961 N.ar    1  UNL1       -0.1586
      7 C         142.4465  139.5455  160.5187 C.ar    1  UNL1        0.1762
      8 C         143.1459  140.1335  161.7082 C.ar    1  UNL1        0.2829
      9 O         144.5468  139.7114  162.0389 O.2     1  UNL1       -0.2652
     10 N         142.4445  141.1436  162.5671 N.ar    1  UNL1       -0.2793
     11 C         139.3554  140.6584  164.5444 C.3     1  UNL1        0.0311
     12 C         139.4981  142.1222  164.2493 C.ar    1  UNL1       -0.0189
     13 C         138.7966  143.1323  165.1082 C.ar    1  UNL1       -0.0042
     14 C         138.9393  144.5961  164.8131 C.ar    1  UNL1       -0.0003
     15 C         139.7834  145.0497  163.6591 C.ar    1  UNL1        0.0001
     16 C         140.4849  144.0396  162.8002 C.ar    1  UNL1        0.0027
     17 C         140.3422  142.5758  163.0954 C.ar    1  UNL1        0.0303
     18 C         141.7489  137.4140  157.3508 C.ar    1  UNL1        0.0829
     19 C         140.5143  137.2691  156.5114 C.ar    1  UNL1        0.0198
     20 C         140.5156  136.3464  155.3287 C.ar    1  UNL1        0.0118
     21 C         141.7514  135.5686  154.9855 C.ar    1  UNL1        0.0685
     22 C         142.9860  135.7135  155.8249 C.ar    1  UNL1        0.0118
     23 C         142.9848  136.6363  157.0076 C.ar    1  UNL1        0.0198
     24 C         141.7525  134.6459  153.8028 C.1     1  UNL1        0.1004
     25 N         141.7537  133.7233  152.6202 N.1     1  UNL1       -0.1908
     26 C         143.1440  141.7316  163.7567 C.3     1  UNL1        0.1119
     27 C         142.9799  141.1041  165.1091 C.3     1  UNL1        0.0388
     28 C         142.9049  139.6116  165.2394 C.3     1  UNL1        0.0048
     29 C         142.7408  138.9841  166.5918 C.3     1  UNL1        0.0174
     30 C         142.6517  139.8491  167.8141 C.3     1  UNL1        0.0720
     31 N         142.7267  141.3415  167.6839 N.3     1  UNL1       -0.2739
     32 C         142.8908  141.9690  166.3314 C.3     1  UNL1        0.0739
     33 C         142.6375  142.2064  168.9062 C.3     1  UNL1        0.0576
     34 C         141.3458  142.8860  169.2515 C.3     1  UNL1        0.0173
     35 C         143.8403  142.3915  169.7833 C.3     1  UNL1        0.0173
@<TRIPOS>BOND
     1    11    12    1
     2    12    13   ar
     3    13    14   ar
     4    14    15   ar
     5    15    16   ar
     6    16    17   ar
     7    17     1    1
     8     1     2   ar
     9     2     3   ar
    10     3     4   ar
    11     4     5   ar
    12     5    18    1
    13    18    19   ar
    14    19    20   ar
    15    20    21   ar
    16    21    24    1
    17    24    25    3
    18    21    22   ar
    19    22    23   ar
    20     5     6   ar
    21     6     7   ar
    22     7     8   ar
    23     8     9    2
    24     8    10   ar
    25    10    26    1
    26    26    27    1
    27    27    28    1
    28    28    29    1
    29    29    30    1
    30    30    31    1
    31    31    33    1
    32    33    34    1
    33    33    35    1
    34    31    32    1
    35    17    12   ar
    36    10     1   ar
    37    32    27    1
    38     7     3   ar
    39    23    18   ar
