@<TRIPOS>MOLECULE
*****
 29 33 0 0 0
SMALL
GASTEIGER

@<TRIPOS>ATOM
      1 C         138.5349  139.9068  164.2081 C.3     1  UNL1        0.0181
      2 C         138.7050  139.6081  162.7479 C.3     1  UNL1        0.0036
      3 C         138.7751  139.6044  161.2495 C.3     1  UNL1        0.0227
      4 C         138.3326  140.9518  160.7613 C.3     1  UNL1        0.0870
      5 C         137.9889  141.7885  161.9579 C.3     1  UNL1        0.0227
      6 C         138.2191  140.9581  163.1857 C.3     1  UNL1        0.0036
      7 N         138.2485  141.3864  159.3281 N.ar    1  UNL1       -0.3097
      8 C         137.5295  140.6631  158.2282 C.ar    1  UNL1        0.1785
      9 N         137.7052  141.4503  156.9635 N.ar    1  UNL1       -0.2238
     10 C         138.5328  142.6602  157.2818 C.ar    1  UNL1        0.1018
     11 C         139.0240  143.7927  156.4298 C.ar    1  UNL1        0.0413
     12 C         139.8510  144.8857  157.0391 C.ar    1  UNL1        0.1005
     13 N         140.1868  144.8463  158.5005 N.ar    1  UNL1       -0.2407
     14 C         139.6955  143.7137  159.3526 C.ar    1  UNL1        0.1176
     15 C         138.8686  142.6207  158.7433 C.ar    1  UNL1        0.0983
     16 C         138.6190  139.4722  165.6412 C.3     1  UNL1        0.0718
     17 N         139.2525  140.3709  166.6615 N.am    1  UNL1       -0.3025
     18 C         140.7007  140.2020  167.0137 C.2     1  UNL1        0.2458
     19 O         141.5155  139.1344  166.3457 O.2     1  UNL1       -0.2701
     20 H         138.7177  141.0716  167.0999 H       1  UNL1        0.1497
     21 C         141.3342  141.1008  168.0341 C.ar    1  UNL1        0.0534
     22 C         142.7229  140.8169  168.5246 C.ar    1  UNL1        0.0054
     23 C         143.3563  141.7156  169.5449 C.ar    1  UNL1        0.0115
     24 C         142.6010  142.8983  170.0747 C.ar    1  UNL1        0.0577
     25 CL        143.2344  143.7970  171.0950 Cl      1  UNL1       -0.0822
     26 C         141.2122  143.1822  169.5842 C.ar    1  UNL1        0.0115
     27 C         140.5788  142.2835  168.5639 C.ar    1  UNL1        0.0054
     28 C         137.2479  138.0206  167.3033 C.3     1  UNL1        0.0017
     29 C         138.0697  138.1389  166.0542 C.3     1  UNL1        0.0196
@<TRIPOS>BOND
     1    28    29    1
     2    29    16    1
     3    16    17    1
     4    17    18   am
     5    18    19    2
     6    18    21    1
     7    21    22   ar
     8    22    23   ar
     9    23    24   ar
    10    24    25    1
    11    24    26   ar
    12    26    27   ar
    13     1    16    1
    14     1     2    1
    15     2     3    1
    16     3     4    1
    17     4     7    1
    18     7     8   ar
    19     8     9   ar
    20     9    10   ar
    21    10    11   ar
    22    11    12   ar
    23    12    13   ar
    24    13    14   ar
    25    14    15   ar
    26     4     5    1
    27     6     5    1
    28    27    21   ar
    29     6     1    1
    30     6     2    1
    31    15     7   ar
    32    15    10   ar
    33    17    20    1
@<TRIPOS>MOLECULE
*****
 29 33 0 0 0
SMALL
GASTEIGER

@<TRIPOS>ATOM
      1 C         140.0854  138.2006  157.6240 C.3     1  UNL1        0.0181
      2 C         140.2791  138.2989  159.1082 C.3     1  UNL1        0.0036
      3 C         140.2305  138.5959  160.5777 C.3     1  UNL1        0.0227
      4 C         139.1126  139.5668  160.8178 C.3     1  UNL1        0.0870
      5 C         138.4702  139.8699  159.4966 C.3     1  UNL1        0.0227
      6 C         139.1911  139.0863  158.4401 C.3     1  UNL1        0.0036
      7 N         138.7081  140.1349  162.1458 N.ar    1  UNL1       -0.3097
      8 C         138.5008  139.3568  163.4113 C.ar    1  UNL1        0.1785
      9 N         138.1044  140.3219  164.4891 N.ar    1  UNL1       -0.2238
     10 C         138.0667  141.6964  163.8896 C.ar    1  UNL1        0.1018
     11 C         137.7409  143.0382  164.4754 C.ar    1  UNL1        0.0413
     12 C         137.7881  144.2645  163.6129 C.ar    1  UNL1        0.1005
     13 N         138.1612  144.1490  162.1646 N.ar    1  UNL1       -0.2407
     14 C         138.4871  142.8071  161.5789 C.ar    1  UNL1        0.1176
     15 C         138.4398  141.5808  162.4413 C.ar    1  UNL1        0.0983
     16 C         140.4899  137.6326  156.2960 C.3     1  UNL1        0.0718
     17 N         141.0697  136.2515  156.2162 N.am    1  UNL1       -0.3025
     18 C         142.5285  136.0336  156.4887 C.2     1  UNL1        0.2458
     19 O         143.4077  137.1968  156.8409 O.2     1  UNL1       -0.2701
     20 H         140.4927  135.4880  155.9851 H       1  UNL1        0.1497
     21 C         143.1083  134.6524  156.4089 C.ar    1  UNL1        0.0534
     22 C         142.9297  133.8348  155.1642 C.ar    1  UNL1        0.0054
     23 C         143.5094  132.4536  155.0844 C.ar    1  UNL1        0.0115
     24 C         144.2678  131.8902  156.2494 C.ar    1  UNL1        0.0577
     25 CL        144.8476  130.5090  156.1696 Cl      1  UNL1       -0.0822
     26 C         144.4465  132.7078  157.4942 C.ar    1  UNL1        0.0115
     27 C         143.8668  134.0889  157.5740 C.ar    1  UNL1        0.0054
     28 C         141.3886  139.4002  154.6173 C.3     1  UNL1        0.0017
     29 C         140.3147  138.4456  155.0476 C.3     1  UNL1        0.0196
@<TRIPOS>BOND
     1    28    29    1
     2    29    16    1
     3    16    17    1
     4    17    18   am
     5    18    19    2
     6    18    21    1
     7    21    22   ar
     8    22    23   ar
     9    23    24   ar
    10    24    25    1
    11    24    26   ar
    12    26    27   ar
    13     1    16    1
    14     1     2    1
    15     2     3    1
    16     3     4    1
    17     4     7    1
    18     7     8   ar
    19     8     9   ar
    20     9    10   ar
    21    10    11   ar
    22    11    12   ar
    23    12    13   ar
    24    13    14   ar
    25    14    15   ar
    26     4     5    1
    27     6     5    1
    28    27    21   ar
    29     6     1    1
    30     6     2    1
    31    15     7   ar
    32    15    10   ar
    33    17    20    1
@<TRIPOS>MOLECULE
*****
 29 33 0 0 0
SMALL
GASTEIGER

@<TRIPOS>ATOM
      1 C         142.2229  137.3863  157.4221 C.3     1  UNL1        0.0181
      2 C         143.0233  136.2487  156.8606 C.3     1  UNL1        0.0036
      3 C         143.5673  135.0596  156.1257 C.3     1  UNL1        0.0227
      4 C         142.5092  134.5756  155.1792 C.3     1  UNL1        0.0870
      5 C         141.3110  135.4655  155.3291 C.3     1  UNL1        0.0227
      6 C         141.6287  136.4995  156.3682 C.3     1  UNL1        0.0036
      7 N         142.6281  133.4068  154.2466 N.ar    1  UNL1       -0.3097
      8 C         141.9810  133.2848  152.8988 C.ar    1  UNL1        0.1785
      9 N         142.3681  131.9575  152.3173 N.ar    1  UNL1       -0.2238
     10 C         143.2544  131.2591  153.3055 C.ar    1  UNL1        0.1018
     11 C         143.9359  129.9232  153.2737 C.ar    1  UNL1        0.0413
     12 C         144.7781  129.4831  154.4343 C.ar    1  UNL1        0.1005
     13 N         144.9388  130.3789  155.6267 N.ar    1  UNL1       -0.2407
     14 C         144.2573  131.7147  155.6585 C.ar    1  UNL1        0.1176
     15 C         143.4151  132.1548  154.4979 C.ar    1  UNL1        0.0983
     16 C         142.1039  138.5550  158.3547 C.3     1  UNL1        0.0718
     17 N         141.2551  138.4480  159.5869 N.am    1  UNL1       -0.3025
     18 C         141.8636  137.9902  160.8792 C.2     1  UNL1        0.2458
     19 O         143.3207  137.6394  160.9395 O.2     1  UNL1       -0.2701
     20 H         140.2988  138.6782  159.5473 H       1  UNL1        0.1497
     21 C         141.0148  137.8831  162.1114 C.ar    1  UNL1        0.0534
     22 C         139.5265  138.0417  162.0131 C.ar    1  UNL1        0.0054
     23 C         138.6778  137.9346  163.2452 C.ar    1  UNL1        0.0115
     24 C         139.3174  137.6690  164.5757 C.ar    1  UNL1        0.0577
     25 CL        138.4686  137.5619  165.8078 Cl      1  UNL1       -0.0822
     26 C         140.8057  137.5104  164.6741 C.ar    1  UNL1        0.0115
     27 C         141.6545  137.6174  163.4420 C.ar    1  UNL1        0.0054
     28 C         143.7464  139.9119  156.8679 C.3     1  UNL1        0.0017
     29 C         142.8336  139.8310  158.0553 C.3     1  UNL1        0.0196
@<TRIPOS>BOND
     1    28    29    1
     2    29    16    1
     3    16    17    1
     4    17    18   am
     5    18    19    2
     6    18    21    1
     7    21    22   ar
     8    22    23   ar
     9    23    24   ar
    10    24    25    1
    11    24    26   ar
    12    26    27   ar
    13     1    16    1
    14     1     2    1
    15     2     3    1
    16     3     4    1
    17     4     7    1
    18     7     8   ar
    19     8     9   ar
    20     9    10   ar
    21    10    11   ar
    22    11    12   ar
    23    12    13   ar
    24    13    14   ar
    25    14    15   ar
    26     4     5    1
    27     6     5    1
    28    27    21   ar
    29     6     1    1
    30     6     2    1
    31    15     7   ar
    32    15    10   ar
    33    17    20    1
@<TRIPOS>MOLECULE
*****
 29 33 0 0 0
SMALL
GASTEIGER

@<TRIPOS>ATOM
      1 C         140.4859  145.2287  158.1365 C.3     1  UNL1        0.0181
      2 C         140.1222  144.2136  159.1792 C.3     1  UNL1        0.0036
      3 C         139.7632  143.4448  160.4162 C.3     1  UNL1        0.0227
      4 C         139.7093  144.4102  161.5629 C.3     1  UNL1        0.0870
      5 C         140.0351  145.7758  161.0347 C.3     1  UNL1        0.0227
      6 C         140.2903  145.6543  159.5615 C.3     1  UNL1        0.0036
      7 N         139.3864  144.0699  162.9876 N.ar    1  UNL1       -0.3097
      8 C         138.0562  144.2491  163.6571 C.ar    1  UNL1        0.1785
      9 N         138.1847  143.7806  165.0763 N.ar    1  UNL1       -0.2238
     10 C         139.5945  143.3120  165.2839 C.ar    1  UNL1        0.1018
     11 C         140.2978  142.7455  166.4815 C.ar    1  UNL1        0.0413
     12 C         141.7438  142.3579  166.3883 C.ar    1  UNL1        0.1005
     13 N         142.4865  142.5367  165.0974 N.ar    1  UNL1       -0.2407
     14 C         141.7832  143.1032  163.8997 C.ar    1  UNL1        0.1176
     15 C         140.3372  143.4908  163.9930 C.ar    1  UNL1        0.0983
     16 C         140.8088  145.5690  156.7118 C.3     1  UNL1        0.0718
     17 N         140.6600  146.9802  156.2255 N.am    1  UNL1       -0.3025
     18 C         139.4108  147.3984  155.5082 C.2     1  UNL1        0.2458
     19 O         138.3104  146.4056  155.2772 O.2     1  UNL1       -0.2701
     20 H         141.3822  147.6318  156.3771 H       1  UNL1        0.1497
     21 C         139.2619  148.8097  155.0219 C.ar    1  UNL1        0.0534
     22 C         139.7994  149.2001  153.6771 C.ar    1  UNL1        0.0054
     23 C         139.6506  150.6112  153.1908 C.ar    1  UNL1        0.0115
     24 C         138.9643  151.6319  154.0493 C.ar    1  UNL1        0.0577
     25 CL        138.8155  153.0431  153.5630 Cl      1  UNL1       -0.0822
     26 C         138.4267  151.2415  155.3942 C.ar    1  UNL1        0.0115
     27 C         138.5756  149.8304  155.8805 C.ar    1  UNL1        0.0054
     28 C         142.0812  144.8645  154.5589 C.3     1  UNL1        0.0017
     29 C         141.2806  144.4982  155.7733 C.3     1  UNL1        0.0196
@<TRIPOS>BOND
     1    28    29    1
     2    29    16    1
     3    16    17    1
     4    17    18   am
     5    18    19    2
     6    18    21    1
     7    21    22   ar
     8    22    23   ar
     9    23    24   ar
    10    24    25    1
    11    24    26   ar
    12    26    27   ar
    13     1    16    1
    14     1     2    1
    15     2     3    1
    16     3     4    1
    17     4     7    1
    18     7     8   ar
    19     8     9   ar
    20     9    10   ar
    21    10    11   ar
    22    11    12   ar
    23    12    13   ar
    24    13    14   ar
    25    14    15   ar
    26     4     5    1
    27     6     5    1
    28    27    21   ar
    29     6     1    1
    30     6     2    1
    31    15     7   ar
    32    15    10   ar
    33    17    20    1
@<TRIPOS>MOLECULE
*****
 29 33 0 0 0
SMALL
GASTEIGER

@<TRIPOS>ATOM
      1 C         143.1119  139.6875  162.0898 C.3     1  UNL1        0.0181
      2 C         143.2390  139.4440  160.6151 C.3     1  UNL1        0.0036
      3 C         143.0819  139.0710  159.1707 C.3     1  UNL1        0.0227
      4 C         141.7497  138.4015  159.0070 C.3     1  UNL1        0.0870
      5 C         141.0833  138.3606  160.3503 C.3     1  UNL1        0.0227
      6 C         142.0037  139.0048  161.3441 C.3     1  UNL1        0.0036
      7 N         141.1832  137.8667  157.7252 N.ar    1  UNL1       -0.3097
      8 C         139.8177  138.1564  157.1760 C.ar    1  UNL1        0.1785
      9 N         139.6734  137.4171  155.8789 N.ar    1  UNL1       -0.2238
     10 C         140.9496  136.6705  155.6264 C.ar    1  UNL1        0.1018
     11 C         141.3826  135.7735  154.5048 C.ar    1  UNL1        0.0413
     12 C         142.7487  135.1544  154.5244 C.ar    1  UNL1        0.1005
     13 N         143.6819  135.4323  155.6655 N.ar    1  UNL1       -0.2407
     14 C         143.2489  136.3293  156.7870 C.ar    1  UNL1        0.1176
     15 C         141.8828  136.9484  156.7675 C.ar    1  UNL1        0.0983
     16 C         143.6783  140.2222  163.3716 C.3     1  UNL1        0.0718
     17 N         142.7743  140.4839  164.5396 N.am    1  UNL1       -0.3025
     18 C         142.3477  139.3517  165.4263 C.2     1  UNL1        0.2458
     19 O         142.8251  137.9579  165.1450 O.2     1  UNL1       -0.2701
     20 H         142.4609  141.3988  164.7242 H       1  UNL1        0.1497
     21 C         141.4436  139.6135  166.5943 C.ar    1  UNL1        0.0534
     22 C         142.0280  139.9372  167.9373 C.ar    1  UNL1        0.0054
     23 C         141.1240  140.1990  169.1052 C.ar    1  UNL1        0.0115
     24 C         139.6355  140.1369  168.9303 C.ar    1  UNL1        0.0577
     25 CL        138.7315  140.3986  170.0982 Cl      1  UNL1       -0.0822
     26 C         139.0511  139.8131  167.5873 C.ar    1  UNL1        0.0115
     27 C         139.9551  139.5514  166.4193 C.ar    1  UNL1        0.0054
     28 C         145.6316  141.8747  163.8231 C.3     1  UNL1        0.0017
     29 C         145.1489  140.4953  163.4855 C.3     1  UNL1        0.0196
@<TRIPOS>BOND
     1    28    29    1
     2    29    16    1
     3    16    17    1
     4    17    18   am
     5    18    19    2
     6    18    21    1
     7    21    22   ar
     8    22    23   ar
     9    23    24   ar
    10    24    25    1
    11    24    26   ar
    12    26    27   ar
    13     1    16    1
    14     1     2    1
    15     2     3    1
    16     3     4    1
    17     4     7    1
    18     7     8   ar
    19     8     9   ar
    20     9    10   ar
    21    10    11   ar
    22    11    12   ar
    23    12    13   ar
    24    13    14   ar
    25    14    15   ar
    26     4     5    1
    27     6     5    1
    28    27    21   ar
    29     6     1    1
    30     6     2    1
    31    15     7   ar
    32    15    10   ar
    33    17    20    1
@<TRIPOS>MOLECULE
*****
 29 33 0 0 0
SMALL
GASTEIGER

@<TRIPOS>ATOM
      1 C         137.4039  142.5406  156.3634 C.3     1  UNL1        0.0181
      2 C         138.5624  143.3522  156.8629 C.3     1  UNL1        0.0036
      3 C         139.6779  144.0013  157.6274 C.3     1  UNL1        0.0227
      4 C         139.7148  143.3945  158.9986 C.3     1  UNL1        0.0870
      5 C         138.6221  142.3702  159.0817 C.3     1  UNL1        0.0227
      6 C         137.9099  142.3441  157.7619 C.3     1  UNL1        0.0036
      7 N         140.6757  143.7495  160.0943 N.ar    1  UNL1       -0.3097
      8 C         142.1675  143.8365  159.9649 C.ar    1  UNL1        0.1785
      9 N         142.7272  144.2206  161.3025 N.ar    1  UNL1       -0.2238
     10 C         141.5812  144.3711  162.2586 C.ar    1  UNL1        0.1018
     11 C         141.5285  144.7356  163.7127 C.ar    1  UNL1        0.0413
     12 C         140.2078  144.8089  164.4200 C.ar    1  UNL1        0.1005
     13 N         138.9399  144.5177  163.6733 N.ar    1  UNL1       -0.2407
     14 C         138.9926  144.1532  162.2193 C.ar    1  UNL1        0.1176
     15 C         140.3133  144.0799  161.5119 C.ar    1  UNL1        0.0983
     16 C         136.4431  142.1856  155.2678 C.3     1  UNL1        0.0718
     17 N         135.0134  141.8725  155.5962 N.am    1  UNL1       -0.3025
     18 C         134.5533  140.4461  155.6586 C.2     1  UNL1        0.2458
     19 O         135.5228  139.3329  155.3926 O.2     1  UNL1       -0.2701
     20 H         134.3771  142.6031  155.7708 H       1  UNL1        0.1497
     21 C         133.1235  140.1330  155.9871 C.ar    1  UNL1        0.0534
     22 C         132.0466  141.1293  155.6745 C.ar    1  UNL1        0.0054
     23 C         130.6169  140.8162  156.0029 C.ar    1  UNL1        0.0115
     24 C         130.2641  139.5068  156.6440 C.ar    1  UNL1        0.0577
     25 CL        128.8344  139.1937  156.9725 Cl      1  UNL1       -0.0822
     26 C         131.3409  138.5105  156.9567 C.ar    1  UNL1        0.0115
     27 C         132.7707  138.8236  156.6282 C.ar    1  UNL1        0.0054
     28 C         136.7326  143.3418  152.9592 C.3     1  UNL1        0.0017
     29 C         136.9119  142.1436  153.8434 C.3     1  UNL1        0.0196
@<TRIPOS>BOND
     1    28    29    1
     2    29    16    1
     3    16    17    1
     4    17    18   am
     5    18    19    2
     6    18    21    1
     7    21    22   ar
     8    22    23   ar
     9    23    24   ar
    10    24    25    1
    11    24    26   ar
    12    26    27   ar
    13     1    16    1
    14     1     2    1
    15     2     3    1
    16     3     4    1
    17     4     7    1
    18     7     8   ar
    19     8     9   ar
    20     9    10   ar
    21    10    11   ar
    22    11    12   ar
    23    12    13   ar
    24    13    14   ar
    25    14    15   ar
    26     4     5    1
    27     6     5    1
    28    27    21   ar
    29     6     1    1
    30     6     2    1
    31    15     7   ar
    32    15    10   ar
    33    17    20    1
@<TRIPOS>MOLECULE
*****
 29 33 0 0 0
SMALL
GASTEIGER

@<TRIPOS>ATOM
      1 C         142.5118  137.7190  157.2341 C.3     1  UNL1        0.0181
      2 C         141.1684  138.1082  157.7764 C.3     1  UNL1        0.0036
      3 C         139.9771  138.5136  158.5927 C.3     1  UNL1        0.0227
      4 C         140.4227  138.6728  160.0161 C.3     1  UNL1        0.0870
      5 C         141.8896  138.3657  160.0796 C.3     1  UNL1        0.0227
      6 C         142.3504  138.0168  158.6954 C.3     1  UNL1        0.0036
      7 N         139.5541  139.0694  161.1729 N.ar    1  UNL1       -0.3097
      8 C         139.0729  138.1618  162.2659 C.ar    1  UNL1        0.1785
      9 N         138.2356  138.9747  163.2083 N.ar    1  UNL1       -0.2238
     10 C         138.1993  140.3847  162.6977 C.ar    1  UNL1        0.1018
     11 C         137.5295  141.6228  163.2157 C.ar    1  UNL1        0.0413
     12 C         137.6746  142.9194  162.4757 C.ar    1  UNL1        0.1005
     13 N         138.4895  142.9779  161.2177 N.ar    1  UNL1       -0.2407
     14 C         139.1593  141.7398  160.6997 C.ar    1  UNL1        0.1176
     15 C         139.0142  140.4432  161.4397 C.ar    1  UNL1        0.0983
     16 C         143.3804  137.3225  156.0774 C.3     1  UNL1        0.0718
     17 N         143.9051  135.9207  155.9794 N.am    1  UNL1       -0.3025
     18 C         142.9659  134.7865  155.6937 C.2     1  UNL1        0.2458
     19 O         141.5020  135.0542  155.5059 O.2     1  UNL1       -0.2701
     20 H         144.8659  135.7450  156.1027 H       1  UNL1        0.1497
     21 C         143.4907  133.3846  155.5957 C.ar    1  UNL1        0.0534
     22 C         144.4481  132.8684  156.6285 C.ar    1  UNL1        0.0054
     23 C         144.9729  131.4666  156.5306 C.ar    1  UNL1        0.0115
     24 C         144.5402  130.5811  155.3998 C.ar    1  UNL1        0.0577
     25 CL        145.0649  129.1793  155.3019 Cl      1  UNL1       -0.0822
     26 C         143.5827  131.0974  154.3670 C.ar    1  UNL1        0.0115
     27 C         143.0579  132.4991  154.4649 C.ar    1  UNL1        0.0054
     28 C         144.9524  139.1770  155.1611 C.3     1  UNL1        0.0017
     29 C         143.7243  138.3277  155.0184 C.3     1  UNL1        0.0196
@<TRIPOS>BOND
     1    28    29    1
     2    29    16    1
     3    16    17    1
     4    17    18   am
     5    18    19    2
     6    18    21    1
     7    21    22   ar
     8    22    23   ar
     9    23    24   ar
    10    24    25    1
    11    24    26   ar
    12    26    27   ar
    13     1    16    1
    14     1     2    1
    15     2     3    1
    16     3     4    1
    17     4     7    1
    18     7     8   ar
    19     8     9   ar
    20     9    10   ar
    21    10    11   ar
    22    11    12   ar
    23    12    13   ar
    24    13    14   ar
    25    14    15   ar
    26     4     5    1
    27     6     5    1
    28    27    21   ar
    29     6     1    1
    30     6     2    1
    31    15     7   ar
    32    15    10   ar
    33    17    20    1
@<TRIPOS>MOLECULE
*****
 29 33 0 0 0
SMALL
GASTEIGER

@<TRIPOS>ATOM
      1 C         137.4879  140.9146  156.8625 C.3     1  UNL1        0.0181
      2 C         138.6397  140.0107  157.1887 C.3     1  UNL1        0.0036
      3 C         139.7204  139.1779  157.8121 C.3     1  UNL1        0.0227
      4 C         139.6216  139.3292  159.3011 C.3     1  UNL1        0.0870
      5 C         138.4798  140.2554  159.5981 C.3     1  UNL1        0.0227
      6 C         137.8729  140.6766  158.2926 C.3     1  UNL1        0.0036
      7 N         140.5088  138.6699  160.3152 N.ar    1  UNL1       -0.3097
      8 C         141.9281  138.2369  160.0961 C.ar    1  UNL1        0.1785
      9 N         142.4289  137.6273  161.3719 N.ar    1  UNL1       -0.2238
     10 C         141.3190  137.6836  162.3794 C.ar    1  UNL1        0.1018
     11 C         141.2357  137.2314  163.8072 C.ar    1  UNL1        0.0413
     12 C         139.9657  137.4235  164.5818 C.ar    1  UNL1        0.1005
     13 N         138.7790  138.0678  163.9287 N.ar    1  UNL1       -0.2407
     14 C         138.8623  138.5201  162.5010 C.ar    1  UNL1        0.1176
     15 C         140.1323  138.3280  161.7263 C.ar    1  UNL1        0.0983
     16 C         136.6008  141.5738  155.8485 C.3     1  UNL1        0.0718
     17 N         135.1110  141.5375  156.0189 N.am    1  UNL1       -0.3025
     18 C         134.3642  140.2523  155.8172 C.2     1  UNL1        0.2458
     19 O         135.1072  139.0035  155.4452 O.2     1  UNL1       -0.2701
     20 H         134.6233  142.3571  156.2630 H       1  UNL1        0.1497
     21 C         132.8742  140.2159  155.9876 C.ar    1  UNL1        0.0534
     22 C         132.0305  141.3341  155.4514 C.ar    1  UNL1        0.0054
     23 C         130.5407  141.2978  155.6217 C.ar    1  UNL1        0.0115
     24 C         129.8946  140.1431  156.3283 C.ar    1  UNL1        0.0577
     25 CL        128.4048  140.1068  156.4987 Cl      1  UNL1       -0.0822
     26 C         130.7383  139.0248  156.8646 C.ar    1  UNL1        0.0115
     27 C         132.2281  139.0612  156.6942 C.ar    1  UNL1        0.0054
     28 C         136.5365  142.1819  153.3234 C.3     1  UNL1        0.0017
     29 C         137.2034  142.2695  154.6640 C.3     1  UNL1        0.0196
@<TRIPOS>BOND
     1    28    29    1
     2    29    16    1
     3    16    17    1
     4    17    18   am
     5    18    19    2
     6    18    21    1
     7    21    22   ar
     8    22    23   ar
     9    23    24   ar
    10    24    25    1
    11    24    26   ar
    12    26    27   ar
    13     1    16    1
    14     1     2    1
    15     2     3    1
    16     3     4    1
    17     4     7    1
    18     7     8   ar
    19     8     9   ar
    20     9    10   ar
    21    10    11   ar
    22    11    12   ar
    23    12    13   ar
    24    13    14   ar
    25    14    15   ar
    26     4     5    1
    27     6     5    1
    28    27    21   ar
    29     6     1    1
    30     6     2    1
    31    15     7   ar
    32    15    10   ar
    33    17    20    1
@<TRIPOS>MOLECULE
*****
 29 33 0 0 0
SMALL
GASTEIGER

@<TRIPOS>ATOM
      1 C         144.4687  141.4269  157.6361 C.3     1  UNL1        0.0181
      2 C         143.5454  142.4762  158.1808 C.3     1  UNL1        0.0036
      3 C         142.7204  143.4204  159.0042 C.3     1  UNL1        0.0227
      4 C         142.9971  143.1370  160.4509 C.3     1  UNL1        0.0870
      5 C         143.9932  142.0176  160.5217 C.3     1  UNL1        0.0227
      6 C         144.3320  141.6093  159.1187 C.3     1  UNL1        0.0036
      7 N         142.3853  143.8480  161.6214 N.ar    1  UNL1       -0.3097
      8 C         143.1312  144.5907  162.6901 C.ar    1  UNL1        0.1785
      9 N         142.1270  145.1429  163.6578 N.ar    1  UNL1       -0.2238
     10 C         140.7604  144.7414  163.1873 C.ar    1  UNL1        0.1018
     11 C         139.3913  145.0012  163.7423 C.ar    1  UNL1        0.0413
     12 C         138.1819  144.4607  163.0388 C.ar    1  UNL1        0.1005
     13 N         138.3415  143.6604  161.7802 N.ar    1  UNL1       -0.2407
     14 C         139.7106  143.4006  161.2252 C.ar    1  UNL1        0.1176
     15 C         140.9200  143.9411  161.9287 C.ar    1  UNL1        0.0983
     16 C         145.0805  140.7159  156.4656 C.3     1  UNL1        0.0718
     17 N         146.4969  141.0079  156.0675 N.am    1  UNL1       -0.3025
     18 C         146.7800  141.9905  154.9700 C.2     1  UNL1        0.2458
     19 O         145.6468  142.6809  154.2706 O.2     1  UNL1       -0.2701
     20 H         147.2407  140.5548  156.5265 H       1  UNL1        0.1497
     21 C         148.1965  142.2825  154.5718 C.ar    1  UNL1        0.0534
     22 C         149.3312  141.6302  155.3043 C.ar    1  UNL1        0.0054
     23 C         150.7476  141.9222  154.9062 C.ar    1  UNL1        0.0115
     24 C         151.0292  142.8666  153.7754 C.ar    1  UNL1        0.0577
     25 CL        152.4456  143.1586  153.3773 Cl      1  UNL1       -0.0822
     26 C         149.8945  143.5190  153.0428 C.ar    1  UNL1        0.0115
     27 C         148.4781  143.2270  153.4409 C.ar    1  UNL1        0.0054
     28 C         142.8723  140.0379  155.2764 C.3     1  UNL1        0.0017
     29 C         144.2760  139.7127  155.6933 C.3     1  UNL1        0.0196
@<TRIPOS>BOND
     1    28    29    1
     2    29    16    1
     3    16    17    1
     4    17    18   am
     5    18    19    2
     6    18    21    1
     7    21    22   ar
     8    22    23   ar
     9    23    24   ar
    10    24    25    1
    11    24    26   ar
    12    26    27   ar
    13     1    16    1
    14     1     2    1
    15     2     3    1
    16     3     4    1
    17     4     7    1
    18     7     8   ar
    19     8     9   ar
    20     9    10   ar
    21    10    11   ar
    22    11    12   ar
    23    12    13   ar
    24    13    14   ar
    25    14    15   ar
    26     4     5    1
    27     6     5    1
    28    27    21   ar
    29     6     1    1
    30     6     2    1
    31    15     7   ar
    32    15    10   ar
    33    17    20    1
