@<TRIPOS>MOLECULE
*****
 43 47 0 0 0
SMALL
GASTEIGER

@<TRIPOS>ATOM
      1 C         141.6890  140.8610  162.7423 C.3     1  UNL1        0.0807
      2 C         141.5766  140.6441  164.2223 C.ar    1  UNL1        0.0375
      3 C         141.2472  141.7950  165.1261 C.ar    1  UNL1        0.0023
      4 C         141.1349  141.5781  166.6061 C.ar    1  UNL1        0.0181
      5 C         140.8055  142.7290  167.5099 C.ar    1  UNL1        0.0082
      6 C         140.6931  142.5121  168.9899 C.ar    1  UNL1        0.0347
      7 BR        140.3637  143.6631  169.8937 Br      1  UNL1       -0.0490
      8 C         140.9102  141.1443  169.5660 C.ar    1  UNL1        0.0082
      9 C         141.2396  139.9934  168.6622 C.ar    1  UNL1        0.0197
     10 C         141.3520  140.2103  167.1823 C.ar    1  UNL1        0.0844
     11 N         141.6814  139.0594  166.2784 N.ar    1  UNL1       -0.2119
     12 C         141.7937  139.2763  164.7985 C.ar    1  UNL1        0.2211
     13 O         142.1231  138.1254  163.8946 O.3     1  UNL1       -0.4563
     14 C         141.1279  137.0214  163.6929 C.3     1  UNL1        0.2542
     15 C         140.8549  140.0455  161.7993 C.ar    1  UNL1        0.0215
     16 C         139.3796  139.9059  162.0320 C.ar    1  UNL1       -0.0007
     17 C         138.5454  139.0904  161.0890 C.ar    1  UNL1        0.0030
     18 C         139.1866  138.4145  159.9134 C.ar    1  UNL1        0.0402
     19 C         140.6619  138.5541  159.6807 C.ar    1  UNL1        0.1761
     20 C         141.4960  139.3696  160.6237 C.ar    1  UNL1        0.1728
     21 O         142.9158  139.3271  160.1418 O.3     1  UNL1       -0.4349
     22 C         142.9592  138.4854  158.9010 C.3     1  UNL1        0.4294
     23 O         141.5661  138.0076  158.6161 O.3     1  UNL1       -0.4346
     24 C         142.6354  141.8934  162.2053 C.3     1  UNL1        0.1160
     25 O         143.7937  141.1243  162.7681 O.3     1  UNL1       -0.3820
     26 H         144.6204  141.5879  162.5621 H       1  UNL1        0.2107
     27 C         139.2810  144.0041  161.9988 C.ar    1  UNL1        0.1070
     28 C         140.4393  143.2349  162.5617 C.ar    1  UNL1        0.0235
     29 C         141.4771  142.6625  161.6424 C.ar    1  UNL1        0.0064
     30 C         141.3567  142.8592  160.1603 C.ar    1  UNL1        0.0235
     31 C         140.1984  143.6283  159.5974 C.ar    1  UNL1        0.1070
     32 N         139.1605  144.2007  160.5167 N.ar    1  UNL1       -0.2330
     33 S         138.2431  144.5765  162.9182 S.3     1  UNL1       -0.0950
     34 C         138.6695  144.9271  165.4569 C.3     1  UNL1        0.0130
     35 C         138.1415  144.0866  164.3323 C.3     1  UNL1        0.0637
     36 S         140.0780  143.8249  158.1152 S.3     1  UNL1       -0.0950
     37 C         140.5176  145.1165  157.4918 C.3     1  UNL1        0.0637
     38 C         141.7791  145.7821  157.9559 C.3     1  UNL1        0.0130
     39 C         143.5819  142.9258  161.6683 C.3     1  UNL1        0.0491
     40 C         144.5197  143.6387  162.5968 C.3     1  UNL1        0.0750
     41 N         144.0268  144.1387  163.9223 N.3     1  UNL1       -0.2702
     42 C         143.0320  145.2599  163.9782 C.3     1  UNL1        0.0897
     43 C         144.5287  143.5174  165.1920 C.3     1  UNL1        0.0897
@<TRIPOS>BOND
     1    34    35    1
     2    35    33    1
     3    33    27    1
     4    27    28   ar
     5    28    29   ar
     6    29    24    1
     7    24    25    1
     8    24    39    1
     9    39    40    1
    10    40    41    1
    11    41    42    1
    12    41    43    1
    13    24     1    1
    14     1     2    1
    15     2     3   ar
    16     3     4   ar
    17     4     5   ar
    18     5     6   ar
    19     6     7    1
    20     6     8   ar
    21     8     9   ar
    22     9    10   ar
    23    10    11   ar
    24    11    12   ar
    25    12    13    1
    26    13    14    1
    27     1    15    1
    28    15    16   ar
    29    16    17   ar
    30    17    18   ar
    31    18    19   ar
    32    19    20   ar
    33    20    21    1
    34    21    22    1
    35    22    23    1
    36    29    30   ar
    37    30    31   ar
    38    31    36    1
    39    36    37    1
    40    37    38    1
    41    31    32   ar
    42    32    27   ar
    43    12     2   ar
    44    20    15   ar
    45    10     4   ar
    46    23    19    1
    47    25    26    1
@<TRIPOS>MOLECULE
*****
 43 47 0 0 0
SMALL
GASTEIGER

@<TRIPOS>ATOM
      1 C         140.5971  140.5989  163.1029 C.3     1  UNL1        0.0807
      2 C         140.3447  140.5132  164.5791 C.ar    1  UNL1        0.0375
      3 C         140.5593  141.7170  165.4478 C.ar    1  UNL1        0.0023
      4 C         140.3069  141.6313  166.9240 C.ar    1  UNL1        0.0181
      5 C         140.5215  142.8352  167.7927 C.ar    1  UNL1        0.0082
      6 C         140.2692  142.7494  169.2688 C.ar    1  UNL1        0.0347
      7 BR        140.4837  143.9533  170.1376 Br      1  UNL1       -0.0490
      8 C         139.8022  141.4598  169.8762 C.ar    1  UNL1        0.0082
      9 C         139.5877  140.2560  169.0075 C.ar    1  UNL1        0.0197
     10 C         139.8400  140.3417  167.5314 C.ar    1  UNL1        0.0844
     11 N         139.6254  139.1379  166.6626 N.ar    1  UNL1       -0.2119
     12 C         139.8778  139.2236  165.1865 C.ar    1  UNL1        0.2211
     13 O         139.6632  138.0197  164.3177 O.3     1  UNL1       -0.4563
     14 C         140.7103  136.9479  164.2494 C.3     1  UNL1        0.2542
     15 C         141.7224  139.8209  162.4880 C.ar    1  UNL1        0.0215
     16 C         143.0324  139.7003  163.2086 C.ar    1  UNL1       -0.0007
     17 C         144.1578  138.9222  162.5936 C.ar    1  UNL1        0.0030
     18 C         143.9731  138.2647  161.2582 C.ar    1  UNL1        0.0402
     19 C         142.6630  138.3852  160.5376 C.ar    1  UNL1        0.1761
     20 C         141.5377  139.1633  161.1525 C.ar    1  UNL1        0.1728
     21 O         140.3692  139.1088  160.2136 O.3     1  UNL1       -0.4349
     22 C         140.7723  138.2971  159.0184 C.3     1  UNL1        0.4294
     23 O         142.1900  137.8499  159.2187 O.3     1  UNL1       -0.4346
     24 C         139.7240  141.4628  162.2418 C.3     1  UNL1        0.1160
     25 O         138.5433  140.5985  162.5719 O.3     1  UNL1       -0.3820
     26 H         137.7565  140.9389  162.1180 H       1  UNL1        0.2107
     27 C         142.5220  143.3519  160.1555 C.ar    1  UNL1        0.1070
     28 C         141.3413  142.4876  160.4856 C.ar    1  UNL1        0.0235
     29 C         140.9048  142.3270  161.9117 C.ar    1  UNL1        0.0064
     30 C         141.6490  143.0306  163.0076 C.ar    1  UNL1        0.0235
     31 C         142.8297  143.8948  162.6775 C.ar    1  UNL1        0.1070
     32 N         143.2663  144.0554  161.2515 N.ar    1  UNL1       -0.2330
     33 S         142.9585  143.5125  158.7294 S.3     1  UNL1       -0.0950
     34 C         144.1584  141.2119  158.5979 C.3     1  UNL1        0.0130
     35 C         144.0537  142.6482  158.1784 C.3     1  UNL1        0.0637
     36 S         143.5740  144.5984  163.7735 S.3     1  UNL1       -0.0950
     37 C         144.5027  143.8275  164.6642 C.3     1  UNL1        0.0637
     38 C         143.9495  142.9869  165.7765 C.3     1  UNL1        0.0130
     39 C         138.8510  142.3266  161.3806 C.3     1  UNL1        0.0491
     40 C         137.8293  143.2254  162.0116 C.3     1  UNL1        0.0750
     41 N         138.2571  144.2691  163.0004 N.3     1  UNL1       -0.2702
     42 C         139.0372  145.4643  162.5391 C.3     1  UNL1        0.0897
     43 C         137.9047  144.1177  164.4505 C.3     1  UNL1        0.0897
@<TRIPOS>BOND
     1    34    35    1
     2    35    33    1
     3    33    27    1
     4    27    28   ar
     5    28    29   ar
     6    29    24    1
     7    24    25    1
     8    24    39    1
     9    39    40    1
    10    40    41    1
    11    41    42    1
    12    41    43    1
    13    24     1    1
    14     1     2    1
    15     2     3   ar
    16     3     4   ar
    17     4     5   ar
    18     5     6   ar
    19     6     7    1
    20     6     8   ar
    21     8     9   ar
    22     9    10   ar
    23    10    11   ar
    24    11    12   ar
    25    12    13    1
    26    13    14    1
    27     1    15    1
    28    15    16   ar
    29    16    17   ar
    30    17    18   ar
    31    18    19   ar
    32    19    20   ar
    33    20    21    1
    34    21    22    1
    35    22    23    1
    36    29    30   ar
    37    30    31   ar
    38    31    36    1
    39    36    37    1
    40    37    38    1
    41    31    32   ar
    42    32    27   ar
    43    12     2   ar
    44    20    15   ar
    45    10     4   ar
    46    23    19    1
    47    25    26    1
@<TRIPOS>MOLECULE
*****
 43 47 0 0 0
SMALL
GASTEIGER

@<TRIPOS>ATOM
      1 C         141.3445  140.8739  162.5222 C.3     1  UNL1        0.0807
      2 C         141.3819  140.6554  164.0058 C.ar    1  UNL1        0.0375
      3 C         141.0497  141.7822  164.9384 C.ar    1  UNL1        0.0023
      4 C         141.0872  141.5637  166.4220 C.ar    1  UNL1        0.0181
      5 C         140.7550  142.6905  167.3547 C.ar    1  UNL1        0.0082
      6 C         140.7925  142.4720  168.8381 C.ar    1  UNL1        0.0347
      7 BR        140.4603  143.5989  169.7709 Br      1  UNL1       -0.0490
      8 C         141.1622  141.1267  169.3890 C.ar    1  UNL1        0.0082
      9 C         141.4944  139.9999  168.4563 C.ar    1  UNL1        0.0197
     10 C         141.4569  140.2184  166.9728 C.ar    1  UNL1        0.0844
     11 N         141.7891  139.0916  166.0401 N.ar    1  UNL1       -0.2119
     12 C         141.7516  139.3101  164.5566 C.ar    1  UNL1        0.2211
     13 O         142.0838  138.1832  163.6239 O.3     1  UNL1       -0.4563
     14 C         141.0478  137.1482  163.2991 C.3     1  UNL1        0.2542
     15 C         140.1734  140.3863  161.7216 C.ar    1  UNL1        0.0215
     16 C         138.7767  140.7090  162.1630 C.ar    1  UNL1       -0.0007
     17 C         137.6056  140.2214  161.3625 C.ar    1  UNL1        0.0030
     18 C         137.8313  139.4111  160.1205 C.ar    1  UNL1        0.0402
     19 C         139.2282  139.0884  159.6791 C.ar    1  UNL1        0.1761
     20 C         140.3992  139.5760  160.4797 C.ar    1  UNL1        0.1728
     21 O         141.6519  139.1045  159.8027 O.3     1  UNL1       -0.4349
     22 C         141.2552  138.3255  158.5838 C.3     1  UNL1        0.4294
     23 O         139.7571  138.3156  158.5075 O.3     1  UNL1       -0.4346
     24 C         142.4780  141.5800  161.8392 C.3     1  UNL1        0.1160
     25 O         143.4177  140.4965  162.2788 O.3     1  UNL1       -0.3820
     26 H         144.3114  140.6935  161.9572 H       1  UNL1        0.2107
     27 C         140.3967  144.0170  159.4985 C.ar    1  UNL1        0.1070
     28 C         141.3364  142.9336  159.9381 C.ar    1  UNL1        0.0235
     29 C         141.5384  142.6634  161.3997 C.ar    1  UNL1        0.0064
     30 C         140.8007  143.4766  162.4216 C.ar    1  UNL1        0.0235
     31 C         139.8610  144.5600  161.9820 C.ar    1  UNL1        0.1070
     32 N         139.6590  144.8302  160.5205 N.ar    1  UNL1       -0.2330
     33 S         140.1948  144.2872  158.0369 S.3     1  UNL1       -0.0950
     34 C         142.0920  145.9578  157.4371 C.3     1  UNL1        0.0130
     35 C         140.6369  145.5939  157.4477 C.3     1  UNL1        0.0637
     36 S         139.1233  145.3732  163.0041 S.3     1  UNL1       -0.0950
     37 C         138.9008  144.8233  164.3818 C.3     1  UNL1        0.0637
     38 C         137.8603  143.7670  164.6088 C.3     1  UNL1        0.0130
     39 C         143.6116  142.2861  161.1563 C.3     1  UNL1        0.0491
     40 C         144.7319  142.8658  161.9679 C.3     1  UNL1        0.0750
     41 N         144.4458  143.4969  163.2982 N.3     1  UNL1       -0.2702
     42 C         143.8873  144.8875  163.3640 C.3     1  UNL1        0.0897
     43 C         144.7181  142.7375  164.5627 C.3     1  UNL1        0.0897
@<TRIPOS>BOND
     1    34    35    1
     2    35    33    1
     3    33    27    1
     4    27    28   ar
     5    28    29   ar
     6    29    24    1
     7    24    25    1
     8    24    39    1
     9    39    40    1
    10    40    41    1
    11    41    42    1
    12    41    43    1
    13    24     1    1
    14     1     2    1
    15     2     3   ar
    16     3     4   ar
    17     4     5   ar
    18     5     6   ar
    19     6     7    1
    20     6     8   ar
    21     8     9   ar
    22     9    10   ar
    23    10    11   ar
    24    11    12   ar
    25    12    13    1
    26    13    14    1
    27     1    15    1
    28    15    16   ar
    29    16    17   ar
    30    17    18   ar
    31    18    19   ar
    32    19    20   ar
    33    20    21    1
    34    21    22    1
    35    22    23    1
    36    29    30   ar
    37    30    31   ar
    38    31    36    1
    39    36    37    1
    40    37    38    1
    41    31    32   ar
    42    32    27   ar
    43    12     2   ar
    44    20    15   ar
    45    10     4   ar
    46    23    19    1
    47    25    26    1
@<TRIPOS>MOLECULE
*****
 43 47 0 0 0
SMALL
GASTEIGER

@<TRIPOS>ATOM
      1 C         140.6153  140.5710  163.1100 C.3     1  UNL1        0.0807
      2 C         140.3605  140.4924  164.5862 C.ar    1  UNL1        0.0375
      3 C         140.6090  141.6896  165.4550 C.ar    1  UNL1        0.0023
      4 C         140.3542  141.6109  166.9312 C.ar    1  UNL1        0.0181
      5 C         140.6027  142.8081  167.8000 C.ar    1  UNL1        0.0082
      6 C         140.3479  142.7294  169.2761 C.ar    1  UNL1        0.0347
      7 BR        140.5964  143.9267  170.1450 Br      1  UNL1       -0.0490
      8 C         139.8446  141.4535  169.8833 C.ar    1  UNL1        0.0082
      9 C         139.5961  140.2563  169.0145 C.ar    1  UNL1        0.0197
     10 C         139.8509  140.3350  167.5384 C.ar    1  UNL1        0.0844
     11 N         139.6024  139.1377  166.6695 N.ar    1  UNL1       -0.2119
     12 C         139.8572  139.2164  165.1934 C.ar    1  UNL1        0.2211
     13 O         139.6087  138.0192  164.3245 O.3     1  UNL1       -0.4563
     14 C         140.5929  136.8873  164.3079 C.3     1  UNL1        0.2542
     15 C         141.7048  139.7459  162.4920 C.ar    1  UNL1        0.0215
     16 C         143.0109  139.5706  163.2084 C.ar    1  UNL1       -0.0007
     17 C         144.1006  138.7454  162.5904 C.ar    1  UNL1        0.0030
     18 C         143.8840  138.0956  161.2559 C.ar    1  UNL1        0.0402
     19 C         142.5778  138.2710  160.5395 C.ar    1  UNL1        0.1761
     20 C         141.4883  139.0961  161.1575 C.ar    1  UNL1        0.1728
     21 O         140.3155  139.0905  160.2223 O.3     1  UNL1       -0.4349
     22 C         140.6803  138.2620  159.0263 C.3     1  UNL1        0.4294
     23 O         142.0785  137.7554  159.2223 O.3     1  UNL1       -0.4346
     24 C         139.7805  141.4748  162.2520 C.3     1  UNL1        0.1160
     25 O         138.5708  140.6389  162.5484 O.3     1  UNL1       -0.3820
     26 H         137.8011  141.0097  162.0891 H       1  UNL1        0.2107
     27 C         142.8594  143.9274  162.7572 C.ar    1  UNL1        0.1070
     28 C         141.6497  143.0914  163.0535 C.ar    1  UNL1        0.0235
     29 C         140.9902  142.3108  161.9556 C.ar    1  UNL1        0.0064
     30 C         141.5404  142.3661  160.5613 C.ar    1  UNL1        0.0235
     31 C         142.7500  143.2020  160.2649 C.ar    1  UNL1        0.1070
     32 N         143.4096  143.9827  161.3628 N.ar    1  UNL1       -0.2330
     33 S         143.5190  144.7080  163.8552 S.3     1  UNL1       -0.0950
     34 C         143.9582  143.0384  165.7966 C.3     1  UNL1        0.0130
     35 C         144.4720  144.0265  164.7919 C.3     1  UNL1        0.0637
     36 S         143.3002  143.2573  158.8704 S.3     1  UNL1       -0.0950
     37 C         144.3888  142.3123  158.4557 C.3     1  UNL1        0.0637
     38 C         144.1038  140.8442  158.3400 C.3     1  UNL1        0.0130
     39 C         138.9457  142.3786  161.3939 C.3     1  UNL1        0.0491
     40 C         137.9172  143.2709  162.0233 C.3     1  UNL1        0.0750
     41 N         138.3420  144.3521  162.9722 N.3     1  UNL1       -0.2702
     42 C         137.9819  144.2588  164.4253 C.3     1  UNL1        0.0897
     43 C         139.1270  145.5266  162.4681 C.3     1  UNL1        0.0897
@<TRIPOS>BOND
     1    34    35    1
     2    35    33    1
     3    33    27    1
     4    27    28   ar
     5    28    29   ar
     6    29    24    1
     7    24    25    1
     8    24    39    1
     9    39    40    1
    10    40    41    1
    11    41    42    1
    12    41    43    1
    13    24     1    1
    14     1     2    1
    15     2     3   ar
    16     3     4   ar
    17     4     5   ar
    18     5     6   ar
    19     6     7    1
    20     6     8   ar
    21     8     9   ar
    22     9    10   ar
    23    10    11   ar
    24    11    12   ar
    25    12    13    1
    26    13    14    1
    27     1    15    1
    28    15    16   ar
    29    16    17   ar
    30    17    18   ar
    31    18    19   ar
    32    19    20   ar
    33    20    21    1
    34    21    22    1
    35    22    23    1
    36    29    30   ar
    37    30    31   ar
    38    31    36    1
    39    36    37    1
    40    37    38    1
    41    31    32   ar
    42    32    27   ar
    43    12     2   ar
    44    20    15   ar
    45    10     4   ar
    46    23    19    1
    47    25    26    1
@<TRIPOS>MOLECULE
*****
 43 47 0 0 0
SMALL
GASTEIGER

@<TRIPOS>ATOM
      1 C         142.1915  141.4623  162.8869 C.3     1  UNL1        0.0807
      2 C         142.4812  141.6950  164.3402 C.ar    1  UNL1        0.0375
      3 C         141.7056  140.9528  165.3878 C.ar    1  UNL1        0.0023
      4 C         141.9954  141.1856  166.8411 C.ar    1  UNL1        0.0181
      5 C         141.2198  140.4434  167.8887 C.ar    1  UNL1        0.0082
      6 C         141.5096  140.6761  169.3419 C.ar    1  UNL1        0.0347
      7 BR        140.7340  139.9339  170.3896 Br      1  UNL1       -0.0490
      8 C         142.5749  141.6511  169.7474 C.ar    1  UNL1        0.0082
      9 C         143.3505  142.3933  168.6998 C.ar    1  UNL1        0.0197
     10 C         143.0607  142.1605  167.2466 C.ar    1  UNL1        0.0844
     11 N         143.8363  142.9027  166.1989 N.ar    1  UNL1       -0.2119
     12 C         143.5466  142.6700  164.7457 C.ar    1  UNL1        0.2211
     13 O         144.3222  143.4122  163.6980 O.3     1  UNL1       -0.4563
     14 C         143.9731  144.8344  163.3734 C.3     1  UNL1        0.2542
     15 C         141.4826  142.5137  162.0857 C.ar    1  UNL1        0.0215
     16 C         142.1355  143.0951  160.8668 C.ar    1  UNL1       -0.0007
     17 C         141.4266  144.1465  160.0656 C.ar    1  UNL1        0.0030
     18 C         140.0648  144.6166  160.4833 C.ar    1  UNL1        0.0402
     19 C         139.4118  144.0351  161.7022 C.ar    1  UNL1        0.1761
     20 C         140.1207  142.9837  162.5034 C.ar    1  UNL1        0.1728
     21 O         139.2335  142.5977  163.6495 O.3     1  UNL1       -0.4349
     22 C         137.9763  143.4105  163.5567 C.3     1  UNL1        0.4294
     23 O         138.0865  144.2990  162.3531 O.3     1  UNL1       -0.4346
     24 C         142.6107  140.1781  162.2348 C.3     1  UNL1        0.1160
     25 O         144.0286  140.6651  162.1873 O.3     1  UNL1       -0.3820
     26 H         144.5898  139.9871  161.7796 H       1  UNL1        0.2107
     27 C         138.8396  139.5064  161.1967 C.ar    1  UNL1        0.1070
     28 C         140.2575  139.9934  161.1492 C.ar    1  UNL1        0.0235
     29 C         141.1927  139.6911  162.2824 C.ar    1  UNL1        0.0064
     30 C         140.7099  138.9019  163.4630 C.ar    1  UNL1        0.0235
     31 C         139.2920  138.4149  163.5105 C.ar    1  UNL1        0.1070
     32 N         138.3568  138.7172  162.3774 N.ar    1  UNL1       -0.2330
     33 S         137.9044  139.8087  160.0635 S.3     1  UNL1       -0.0950
     34 C         138.3523  141.9116  158.6051 C.3     1  UNL1        0.0130
     35 C         138.4301  140.4267  158.8018 C.3     1  UNL1        0.0637
     36 S         138.8092  137.6256  164.6912 S.3     1  UNL1       -0.0950
     37 C         138.4005  138.3326  165.9495 C.3     1  UNL1        0.0637
     38 C         138.1122  139.8043  165.9231 C.3     1  UNL1        0.0130
     39 C         143.0299  138.8939  161.5828 C.3     1  UNL1        0.0491
     40 C         144.0300  138.9118  160.4651 C.3     1  UNL1        0.0750
     41 N         143.6238  139.3904  159.1028 N.3     1  UNL1       -0.2702
     42 C         144.0722  140.7366  158.6162 C.3     1  UNL1        0.0897
     43 C         142.7693  138.5228  158.2270 C.3     1  UNL1        0.0897
@<TRIPOS>BOND
     1    34    35    1
     2    35    33    1
     3    33    27    1
     4    27    28   ar
     5    28    29   ar
     6    29    24    1
     7    24    25    1
     8    24    39    1
     9    39    40    1
    10    40    41    1
    11    41    42    1
    12    41    43    1
    13    24     1    1
    14     1     2    1
    15     2     3   ar
    16     3     4   ar
    17     4     5   ar
    18     5     6   ar
    19     6     7    1
    20     6     8   ar
    21     8     9   ar
    22     9    10   ar
    23    10    11   ar
    24    11    12   ar
    25    12    13    1
    26    13    14    1
    27     1    15    1
    28    15    16   ar
    29    16    17   ar
    30    17    18   ar
    31    18    19   ar
    32    19    20   ar
    33    20    21    1
    34    21    22    1
    35    22    23    1
    36    29    30   ar
    37    30    31   ar
    38    31    36    1
    39    36    37    1
    40    37    38    1
    41    31    32   ar
    42    32    27   ar
    43    12     2   ar
    44    20    15   ar
    45    10     4   ar
    46    23    19    1
    47    25    26    1
@<TRIPOS>MOLECULE
*****
 43 47 0 0 0
SMALL
GASTEIGER

@<TRIPOS>ATOM
      1 C         140.3999  141.3685  161.5666 C.3     1  UNL1        0.0807
      2 C         140.0814  140.9390  162.9682 C.ar    1  UNL1        0.0375
      3 C         141.0781  141.1642  164.0663 C.ar    1  UNL1        0.0023
      4 C         140.7596  140.7347  165.4679 C.ar    1  UNL1        0.0181
      5 C         141.7562  140.9599  166.5660 C.ar    1  UNL1        0.0082
      6 C         141.4377  140.5304  167.9675 C.ar    1  UNL1        0.0347
      7 BR        142.4343  140.7556  169.0657 Br      1  UNL1       -0.0490
      8 C         140.1226  139.8758  168.2707 C.ar    1  UNL1        0.0082
      9 C         139.1260  139.6506  167.1726 C.ar    1  UNL1        0.0197
     10 C         139.4445  140.0801  165.7711 C.ar    1  UNL1        0.0844
     11 N         138.4478  139.8549  164.6729 N.ar    1  UNL1       -0.2119
     12 C         138.7663  140.2844  163.2714 C.ar    1  UNL1        0.2211
     13 O         137.7697  140.0593  162.1731 O.3     1  UNL1       -0.4563
     14 C         137.5686  138.6821  161.6136 C.3     1  UNL1        0.2542
     15 C         140.6291  140.3387  160.5004 C.ar    1  UNL1        0.0215
     16 C         139.7871  140.3442  159.2591 C.ar    1  UNL1       -0.0007
     17 C         140.0162  139.3143  158.1928 C.ar    1  UNL1        0.0030
     18 C         141.0874  138.2790  158.3679 C.ar    1  UNL1        0.0402
     19 C         141.9295  138.2735  159.6093 C.ar    1  UNL1        0.1761
     20 C         141.7003  139.3034  160.6755 C.ar    1  UNL1        0.1728
     21 O         142.6800  139.0501  161.7828 O.3     1  UNL1       -0.4349
     22 C         143.5147  137.8638  161.4008 C.3     1  UNL1        0.4294
     23 O         143.0508  137.3838  160.0575 O.3     1  UNL1       -0.4346
     24 C         140.4892  142.8278  161.2314 C.3     1  UNL1        0.1160
     25 O         139.0211  142.9792  161.4993 O.3     1  UNL1       -0.3820
     26 H         138.7591  143.9016  161.3526 H       1  UNL1        0.2107
     27 C         144.3741  142.2834  161.8321 C.ar    1  UNL1        0.1070
     28 C         142.9060  142.4348  162.1000 C.ar    1  UNL1        0.0235
     29 C         141.9573  142.6765  160.9636 C.ar    1  UNL1        0.0064
     30 C         142.4767  142.7668  159.5593 C.ar    1  UNL1        0.0235
     31 C         143.9448  142.6155  159.2914 C.ar    1  UNL1        0.1070
     32 N         144.8935  142.3738  160.4278 N.ar    1  UNL1       -0.2330
     33 S         145.3229  142.0417  162.9686 S.3     1  UNL1       -0.0950
     34 C         144.9374  139.8556  164.3184 C.3     1  UNL1        0.0130
     35 C         144.8449  141.3487  164.2101 C.3     1  UNL1        0.0637
     36 S         144.4642  142.7059  157.8871 S.3     1  UNL1       -0.0950
     37 C         144.9144  141.4661  157.1727 C.3     1  UNL1        0.0637
     38 C         144.0606  140.2331  157.1997 C.3     1  UNL1        0.0130
     39 C         140.5785  144.2872  160.8962 C.3     1  UNL1        0.0491
     40 C         140.1758  145.3158  161.9109 C.3     1  UNL1        0.0750
     41 N         140.5684  145.1451  163.3485 N.3     1  UNL1       -0.2702
     42 C         141.9876  145.3832  163.7717 C.3     1  UNL1        0.0897
     43 C         139.5419  144.7363  164.3629 C.3     1  UNL1        0.0897
@<TRIPOS>BOND
     1    34    35    1
     2    35    33    1
     3    33    27    1
     4    27    28   ar
     5    28    29   ar
     6    29    24    1
     7    24    25    1
     8    24    39    1
     9    39    40    1
    10    40    41    1
    11    41    42    1
    12    41    43    1
    13    24     1    1
    14     1     2    1
    15     2     3   ar
    16     3     4   ar
    17     4     5   ar
    18     5     6   ar
    19     6     7    1
    20     6     8   ar
    21     8     9   ar
    22     9    10   ar
    23    10    11   ar
    24    11    12   ar
    25    12    13    1
    26    13    14    1
    27     1    15    1
    28    15    16   ar
    29    16    17   ar
    30    17    18   ar
    31    18    19   ar
    32    19    20   ar
    33    20    21    1
    34    21    22    1
    35    22    23    1
    36    29    30   ar
    37    30    31   ar
    38    31    36    1
    39    36    37    1
    40    37    38    1
    41    31    32   ar
    42    32    27   ar
    43    12     2   ar
    44    20    15   ar
    45    10     4   ar
    46    23    19    1
    47    25    26    1
@<TRIPOS>MOLECULE
*****
 43 47 0 0 0
SMALL
GASTEIGER

@<TRIPOS>ATOM
      1 C         141.7475  140.6762  163.3320 C.3     1  UNL1        0.0807
      2 C         141.9559  140.7449  164.8159 C.ar    1  UNL1        0.0375
      3 C         141.1965  141.7468  165.6342 C.ar    1  UNL1        0.0023
      4 C         141.4049  141.8155  167.1182 C.ar    1  UNL1        0.0181
      5 C         140.6455  142.8173  167.9365 C.ar    1  UNL1        0.0082
      6 C         140.8539  142.8860  169.4203 C.ar    1  UNL1        0.0347
      7 BR        140.0946  143.8878  170.2388 Br      1  UNL1       -0.0490
      8 C         141.8216  141.9528  170.0858 C.ar    1  UNL1        0.0082
      9 C         142.5809  140.9510  169.2675 C.ar    1  UNL1        0.0197
     10 C         142.3726  140.8823  167.7836 C.ar    1  UNL1        0.0844
     11 N         143.1319  139.8805  166.9652 N.ar    1  UNL1       -0.2119
     12 C         142.9235  139.8118  165.4814 C.ar    1  UNL1        0.2211
     13 O         143.6829  138.8100  164.6629 O.3     1  UNL1       -0.4563
     14 C         145.0674  139.1293  164.1820 C.3     1  UNL1        0.2542
     15 C         142.7343  141.3224  162.4053 C.ar    1  UNL1        0.0215
     16 C         143.2577  140.5655  161.2209 C.ar    1  UNL1       -0.0007
     17 C         144.2446  141.2117  160.2942 C.ar    1  UNL1        0.0030
     18 C         144.7079  142.6149  160.5520 C.ar    1  UNL1        0.0402
     19 C         144.1844  143.3718  161.7366 C.ar    1  UNL1        0.1761
     20 C         143.1976  142.7256  162.6632 C.ar    1  UNL1        0.1728
     21 O         142.8597  143.7120  163.7415 O.3     1  UNL1       -0.4349
     22 C         143.6376  144.9678  163.4813 C.3     1  UNL1        0.4294
     23 O         144.4564  144.7576  162.2422 O.3     1  UNL1       -0.4346
     24 C         140.5524  139.9613  162.7747 C.3     1  UNL1        0.1160
     25 O         141.0425  138.6759  163.3728 O.3     1  UNL1       -0.3820
     26 H         140.4195  137.9630  163.1620 H       1  UNL1        0.2107
     27 C         139.1412  143.6580  162.4707 C.ar    1  UNL1        0.1070
     28 C         139.6313  142.3727  163.0688 C.ar    1  UNL1        0.0235
     29 C         140.0623  141.2466  162.1766 C.ar    1  UNL1        0.0064
     30 C         140.0033  141.4059  160.6863 C.ar    1  UNL1        0.0235
     31 C         139.5133  142.6912  160.0882 C.ar    1  UNL1        0.1070
     32 N         139.0822  143.8173  160.9804 N.ar    1  UNL1       -0.2330
     33 S         138.7102  144.7841  163.3630 S.3     1  UNL1       -0.0950
     34 C         138.3396  145.0545  165.9203 C.3     1  UNL1        0.0130
     35 C         139.2664  144.8958  164.7516 C.3     1  UNL1        0.0637
     36 S         139.4543  142.8504  158.5978 S.3     1  UNL1       -0.0950
     37 C         140.7018  143.1670  157.8274 C.3     1  UNL1        0.0637
     38 C         141.8528  143.8449  158.5096 C.3     1  UNL1        0.0130
     39 C         139.3573  139.2463  162.2175 C.3     1  UNL1        0.0491
     40 C         138.5912  138.2842  163.0762 C.3     1  UNL1        0.0750
     41 N         138.4912  138.5143  164.5550 N.3     1  UNL1       -0.2702
     42 C         138.7843  137.3951  165.5097 C.3     1  UNL1        0.0897
     43 C         138.0981  139.8636  165.0792 C.3     1  UNL1        0.0897
@<TRIPOS>BOND
     1    34    35    1
     2    35    33    1
     3    33    27    1
     4    27    28   ar
     5    28    29   ar
     6    29    24    1
     7    24    25    1
     8    24    39    1
     9    39    40    1
    10    40    41    1
    11    41    42    1
    12    41    43    1
    13    24     1    1
    14     1     2    1
    15     2     3   ar
    16     3     4   ar
    17     4     5   ar
    18     5     6   ar
    19     6     7    1
    20     6     8   ar
    21     8     9   ar
    22     9    10   ar
    23    10    11   ar
    24    11    12   ar
    25    12    13    1
    26    13    14    1
    27     1    15    1
    28    15    16   ar
    29    16    17   ar
    30    17    18   ar
    31    18    19   ar
    32    19    20   ar
    33    20    21    1
    34    21    22    1
    35    22    23    1
    36    29    30   ar
    37    30    31   ar
    38    31    36    1
    39    36    37    1
    40    37    38    1
    41    31    32   ar
    42    32    27   ar
    43    12     2   ar
    44    20    15   ar
    45    10     4   ar
    46    23    19    1
    47    25    26    1
@<TRIPOS>MOLECULE
*****
 43 47 0 0 0
SMALL
GASTEIGER

@<TRIPOS>ATOM
      1 C         140.3494  141.3400  161.6175 C.3     1  UNL1        0.0807
      2 C         140.0303  140.9286  163.0243 C.ar    1  UNL1        0.0375
      3 C         141.0008  141.2214  164.1298 C.ar    1  UNL1        0.0023
      4 C         140.6816  140.8100  165.5366 C.ar    1  UNL1        0.0181
      5 C         141.6521  141.1028  166.6422 C.ar    1  UNL1        0.0082
      6 C         141.3329  140.6914  168.0489 C.ar    1  UNL1        0.0347
      7 BR        142.3035  140.9842  169.1545 Br      1  UNL1       -0.0490
      8 C         140.0432  139.9872  168.3500 C.ar    1  UNL1        0.0082
      9 C         139.0727  139.6944  167.2445 C.ar    1  UNL1        0.0197
     10 C         139.3919  140.1058  165.8378 C.ar    1  UNL1        0.0844
     11 N         138.4213  139.8130  164.7321 N.ar    1  UNL1       -0.2119
     12 C         138.7405  140.2244  163.3254 C.ar    1  UNL1        0.2211
     13 O         137.7700  139.9316  162.2198 O.3     1  UNL1       -0.4563
     14 C         137.6243  138.5318  161.7008 C.3     1  UNL1        0.2542
     15 C         140.6286  140.2971  160.5762 C.ar    1  UNL1        0.0215
     16 C         139.8071  140.2510  159.3220 C.ar    1  UNL1       -0.0007
     17 C         140.0863  139.2081  158.2805 C.ar    1  UNL1        0.0030
     18 C         141.1869  138.2114  158.4934 C.ar    1  UNL1        0.0402
     19 C         142.0083  138.2576  159.7477 C.ar    1  UNL1        0.1761
     20 C         141.7292  139.3004  160.7890 C.ar    1  UNL1        0.1728
     21 O         142.6983  139.1008  161.9164 O.3     1  UNL1       -0.4349
     22 C         143.5764  137.9345  161.5717 C.3     1  UNL1        0.4294
     23 O         143.1499  137.4134  160.2313 O.3     1  UNL1       -0.4346
     24 C         140.3895  142.7943  161.2522 C.3     1  UNL1        0.1160
     25 O         138.9119  142.8948  161.4905 O.3     1  UNL1       -0.3820
     26 H         138.6178  143.8031  161.3192 H       1  UNL1        0.2107
     27 C         143.8858  142.6699  159.3787 C.ar    1  UNL1        0.1070
     28 C         142.4083  142.7705  159.6170 C.ar    1  UNL1        0.0235
     29 C         141.8670  142.6937  161.0138 C.ar    1  UNL1        0.0064
     30 C         142.8032  142.5165  162.1722 C.ar    1  UNL1        0.0235
     31 C         144.2807  142.4159  161.9339 C.ar    1  UNL1        0.1070
     32 N         144.8220  142.4927  160.5371 N.ar    1  UNL1       -0.2330
     33 S         144.4271  142.7467  157.9818 S.3     1  UNL1       -0.0950
     34 C         144.0388  140.2634  157.3243 C.3     1  UNL1        0.0130
     35 C         144.8871  141.4999  157.2861 C.3     1  UNL1        0.0637
     36 S         145.2170  142.2386  163.0924 S.3     1  UNL1       -0.0950
     37 C         144.6744  142.1465  164.4878 C.3     1  UNL1        0.0637
     38 C         144.5169  143.3879  165.3148 C.3     1  UNL1        0.0130
     39 C         140.4295  144.2486  160.8868 C.3     1  UNL1        0.0491
     40 C         139.9807  145.2830  161.8760 C.3     1  UNL1        0.0750
     41 N         140.3513  145.1475  163.3232 N.3     1  UNL1       -0.2702
     42 C         139.3115  144.7536  164.3300 C.3     1  UNL1        0.0897
     43 C         141.7617  145.4058  163.7636 C.3     1  UNL1        0.0897
@<TRIPOS>BOND
     1    34    35    1
     2    35    33    1
     3    33    27    1
     4    27    28   ar
     5    28    29   ar
     6    29    24    1
     7    24    25    1
     8    24    39    1
     9    39    40    1
    10    40    41    1
    11    41    42    1
    12    41    43    1
    13    24     1    1
    14     1     2    1
    15     2     3   ar
    16     3     4   ar
    17     4     5   ar
    18     5     6   ar
    19     6     7    1
    20     6     8   ar
    21     8     9   ar
    22     9    10   ar
    23    10    11   ar
    24    11    12   ar
    25    12    13    1
    26    13    14    1
    27     1    15    1
    28    15    16   ar
    29    16    17   ar
    30    17    18   ar
    31    18    19   ar
    32    19    20   ar
    33    20    21    1
    34    21    22    1
    35    22    23    1
    36    29    30   ar
    37    30    31   ar
    38    31    36    1
    39    36    37    1
    40    37    38    1
    41    31    32   ar
    42    32    27   ar
    43    12     2   ar
    44    20    15   ar
    45    10     4   ar
    46    23    19    1
    47    25    26    1
@<TRIPOS>MOLECULE
*****
 43 47 0 0 0
SMALL
GASTEIGER

@<TRIPOS>ATOM
      1 C         140.0793  141.4758  161.5853 C.3     1  UNL1        0.0807
      2 C         139.8504  141.0333  163.0003 C.ar    1  UNL1        0.0375
      3 C         140.7808  141.4844  164.0869 C.ar    1  UNL1        0.0023
      4 C         140.5520  141.0419  165.5018 C.ar    1  UNL1        0.0181
      5 C         141.4824  141.4929  166.5885 C.ar    1  UNL1        0.0082
      6 C         141.2535  141.0505  168.0033 C.ar    1  UNL1        0.0347
      7 BR        142.1840  141.5015  169.0901 Br      1  UNL1       -0.0490
      8 C         140.0943  140.1569  168.3315 C.ar    1  UNL1        0.0082
      9 C         139.1639  139.7059  167.2449 C.ar    1  UNL1        0.0197
     10 C         139.3927  140.1484  165.8300 C.ar    1  UNL1        0.0844
     11 N         138.4623  139.6973  164.7433 N.ar    1  UNL1       -0.2119
     12 C         138.6912  140.1398  163.3285 C.ar    1  UNL1        0.2211
     13 O         137.7607  139.6887  162.2417 O.3     1  UNL1       -0.4563
     14 C         137.7571  138.2536  161.8053 C.3     1  UNL1        0.2542
     15 C         140.2470  140.4558  160.4984 C.ar    1  UNL1        0.0215
     16 C         141.3276  139.4206  160.6017 C.ar    1  UNL1       -0.0007
     17 C         141.4954  138.4005  159.5147 C.ar    1  UNL1        0.0030
     18 C         140.5827  138.4158  158.3245 C.ar    1  UNL1        0.0402
     19 C         139.5021  139.4511  158.2212 C.ar    1  UNL1        0.1761
     20 C         139.3343  140.4711  159.3082 C.ar    1  UNL1        0.1728
     21 O         138.1880  141.3631  158.9338 O.3     1  UNL1       -0.4349
     22 C         137.6473  140.8944  157.6155 C.3     1  UNL1        0.4294
     23 O         138.4595  139.7127  157.1751 O.3     1  UNL1       -0.4346
     24 C         140.1403  142.9382  161.2575 C.3     1  UNL1        0.1160
     25 O         138.6805  143.0705  161.5758 O.3     1  UNL1       -0.3820
     26 H         138.4030  143.9907  161.4445 H       1  UNL1        0.2107
     27 C         144.0511  142.4503  161.7243 C.ar    1  UNL1        0.1070
     28 C         142.5912  142.5826  162.0426 C.ar    1  UNL1        0.0235
     29 C         141.6002  142.8059  160.9391 C.ar    1  UNL1        0.0064
     30 C         142.0689  142.8969  159.5172 C.ar    1  UNL1        0.0235
     31 C         143.5288  142.7645  159.1988 C.ar    1  UNL1        0.1070
     32 N         144.5198  142.5413  160.3023 N.ar    1  UNL1       -0.2330
     33 S         145.0421  142.2270  162.8279 S.3     1  UNL1       -0.0950
     34 C         144.5302  143.2381  165.1658 C.3     1  UNL1        0.0130
     35 C         144.5663  142.0582  164.2404 C.3     1  UNL1        0.0637
     36 S         143.9975  142.8555  157.7768 S.3     1  UNL1       -0.0950
     37 C         144.4634  141.6228  157.0603 C.3     1  UNL1        0.0637
     38 C         143.9330  140.2777  157.4596 C.3     1  UNL1        0.0130
     39 C         140.2014  144.4007  160.9296 C.3     1  UNL1        0.0491
     40 C         139.8562  145.4188  161.9756 C.3     1  UNL1        0.0750
     41 N         140.2445  145.1863  163.4056 N.3     1  UNL1       -0.2702
     42 C         141.6774  145.3275  163.8262 C.3     1  UNL1        0.0897
     43 C         139.2000  144.8124  164.4151 C.3     1  UNL1        0.0897
@<TRIPOS>BOND
     1    34    35    1
     2    35    33    1
     3    33    27    1
     4    27    28   ar
     5    28    29   ar
     6    29    24    1
     7    24    25    1
     8    24    39    1
     9    39    40    1
    10    40    41    1
    11    41    42    1
    12    41    43    1
    13    24     1    1
    14     1     2    1
    15     2     3   ar
    16     3     4   ar
    17     4     5   ar
    18     5     6   ar
    19     6     7    1
    20     6     8   ar
    21     8     9   ar
    22     9    10   ar
    23    10    11   ar
    24    11    12   ar
    25    12    13    1
    26    13    14    1
    27     1    15    1
    28    15    16   ar
    29    16    17   ar
    30    17    18   ar
    31    18    19   ar
    32    19    20   ar
    33    20    21    1
    34    21    22    1
    35    22    23    1
    36    29    30   ar
    37    30    31   ar
    38    31    36    1
    39    36    37    1
    40    37    38    1
    41    31    32   ar
    42    32    27   ar
    43    12     2   ar
    44    20    15   ar
    45    10     4   ar
    46    23    19    1
    47    25    26    1
