@<TRIPOS>MOLECULE
*****
 26 29 0 0 0
SMALL
GASTEIGER

@<TRIPOS>ATOM
      1 C         139.4351  139.6719  167.3991 C.ar    1  UNL1        0.1488
      2 C         138.2592  138.9111  166.8621 C.ar    1  UNL1        0.0390
      3 C         138.2026  138.5459  165.4084 C.ar    1  UNL1        0.0417
      4 C         139.3220  138.9414  164.4916 C.ar    1  UNL1        0.1640
      5 N         139.5422  138.7229  163.0240 N.ar    1  UNL1       -0.2234
      6 C         140.8542  139.3487  162.6539 C.ar    1  UNL1        0.1197
      7 C         141.4449  139.9539  163.8928 C.ar    1  UNL1        0.1036
      8 N         140.4980  139.7022  165.0286 N.ar    1  UNL1       -0.2096
      9 N         140.5545  140.0674  166.4823 N.ar    1  UNL1       -0.1489
     10 C         142.7529  140.6828  163.9806 C.ar    1  UNL1        0.0201
     11 C         144.0423  139.9297  163.8383 C.ar    1  UNL1        0.0016
     12 C         145.3503  140.6587  163.9261 C.ar    1  UNL1        0.0009
     13 C         145.3690  142.1407  164.1562 C.ar    1  UNL1        0.0114
     14 C         144.0797  142.8939  164.2985 C.ar    1  UNL1        0.0577
     15 CL        144.0983  144.3761  164.5286 Cl      1  UNL1       -0.0822
     16 C         142.7716  142.1649  164.2107 C.ar    1  UNL1        0.0129
     17 N         139.4917  140.0371  168.8529 N.pl3   1  UNL1       -0.3184
     18 H         138.8182  139.6811  169.4764 H       1  UNL1        0.1482
     19 O         143.8226  143.6681  170.8675 O.3     1  UNL1       -0.3845
     20 C         142.7399  142.7603  170.3638 C.3     1  UNL1        0.1106
     21 C         141.4067  143.3271  169.9748 C.3     1  UNL1        0.0309
     22 C         140.3239  142.4194  169.4712 C.3     1  UNL1        0.0220
     23 C         140.5744  140.9449  169.3565 C.3     1  UNL1        0.0706
     24 C         141.9076  140.3781  169.7455 C.3     1  UNL1        0.0220
     25 C         142.9904  141.2859  170.2492 C.3     1  UNL1        0.0309
     26 H         143.4985  144.5823  170.8795 H       1  UNL1        0.2103
@<TRIPOS>BOND
     1    20    19    1
     2    20    21    1
     3    21    22    1
     4    22    23    1
     5    23    17    1
     6    17     1    1
     7     1     2   ar
     8     2     3   ar
     9     3     4   ar
    10     4     5   ar
    11     5     6   ar
    12     6     7   ar
    13     7    10    1
    14    10    11   ar
    15    11    12   ar
    16    12    13   ar
    17    13    14   ar
    18    14    15    1
    19    14    16   ar
    20     7     8   ar
    21     8     9   ar
    22    23    24    1
    23    24    25    1
    24    25    20    1
    25     9     1   ar
    26     8     4   ar
    27    16    10   ar
    28    19    26    1
    29    17    18    1
@<TRIPOS>MOLECULE
*****
 26 29 0 0 0
SMALL
GASTEIGER

@<TRIPOS>ATOM
      1 C         139.3577  139.8063  167.1624 C.ar    1  UNL1        0.1488
      2 C         138.5610  138.6758  166.5817 C.ar    1  UNL1        0.0390
      3 C         138.4628  138.5142  165.0937 C.ar    1  UNL1        0.0417
      4 C         139.1612  139.4832  164.1864 C.ar    1  UNL1        0.1640
      5 N         139.2445  139.5772  162.6916 N.ar    1  UNL1       -0.2234
      6 C         140.0928  140.7658  162.3485 C.ar    1  UNL1        0.1197
      7 C         140.5336  141.4064  163.6312 C.ar    1  UNL1        0.1036
      8 N         139.9579  140.6137  164.7670 N.ar    1  UNL1       -0.2096
      9 N         140.0561  140.7752  166.2551 N.ar    1  UNL1       -0.1489
     10 C         141.3984  142.6256  163.7561 C.ar    1  UNL1        0.0201
     11 C         140.9937  143.9042  163.0843 C.ar    1  UNL1        0.0016
     12 C         141.8585  145.1235  163.2093 C.ar    1  UNL1        0.0009
     13 C         143.1280  145.0642  164.0059 C.ar    1  UNL1        0.0114
     14 C         143.5327  143.7855  164.6777 C.ar    1  UNL1        0.0577
     15 CL        144.8023  143.7261  165.4745 Cl      1  UNL1       -0.0822
     16 C         142.6679  142.5663  164.5528 C.ar    1  UNL1        0.0129
     17 N         139.4560  139.9678  168.6505 N.pl3   1  UNL1       -0.3184
     18 H         138.8583  139.4556  169.2418 H       1  UNL1        0.1482
     19 O         143.4915  143.7359  170.9990 O.3     1  UNL1       -0.3845
     20 C         142.4826  142.7939  170.4119 C.3     1  UNL1        0.1106
     21 C         142.8494  141.3604  170.1656 C.3     1  UNL1        0.0309
     22 C         141.8404  140.4184  169.5784 C.3     1  UNL1        0.0220
     23 C         140.4648  140.9098  169.2376 C.3     1  UNL1        0.0706
     24 C         140.0981  142.3434  169.4839 C.3     1  UNL1        0.0220
     25 C         141.1070  143.2853  170.0710 C.3     1  UNL1        0.0309
     26 H         144.3223  143.2613  171.1588 H       1  UNL1        0.2103
@<TRIPOS>BOND
     1    20    19    1
     2    20    21    1
     3    21    22    1
     4    22    23    1
     5    23    17    1
     6    17     1    1
     7     1     2   ar
     8     2     3   ar
     9     3     4   ar
    10     4     5   ar
    11     5     6   ar
    12     6     7   ar
    13     7    10    1
    14    10    11   ar
    15    11    12   ar
    16    12    13   ar
    17    13    14   ar
    18    14    15    1
    19    14    16   ar
    20     7     8   ar
    21     8     9   ar
    22    23    24    1
    23    24    25    1
    24    25    20    1
    25     9     1   ar
    26     8     4   ar
    27    16    10   ar
    28    19    26    1
    29    17    18    1
@<TRIPOS>MOLECULE
*****
 26 29 0 0 0
SMALL
GASTEIGER

@<TRIPOS>ATOM
      1 C         142.4559  139.7764  165.2526 C.ar    1  UNL1        0.1488
      2 C         143.7826  139.0769  165.2355 C.ar    1  UNL1        0.0390
      3 C         144.9130  139.6326  164.4210 C.ar    1  UNL1        0.0417
      4 C         144.7166  140.8879  163.6237 C.ar    1  UNL1        0.1640
      5 N         145.6396  141.6661  162.7334 N.ar    1  UNL1       -0.2234
      6 C         144.8832  142.8466  162.2003 C.ar    1  UNL1        0.1197
      7 C         143.4928  142.7980  162.7612 C.ar    1  UNL1        0.1036
      8 N         143.3899  141.5874  163.6409 N.ar    1  UNL1       -0.2096
      9 N         142.2595  141.0317  164.4553 N.ar    1  UNL1       -0.1489
     10 C         142.3976  143.7864  162.4899 C.ar    1  UNL1        0.0201
     11 C         141.6988  144.4635  163.6315 C.ar    1  UNL1        0.0016
     12 C         140.6036  145.4520  163.3602 C.ar    1  UNL1        0.0009
     13 C         140.2072  145.7633  161.9475 C.ar    1  UNL1        0.0114
     14 C         140.9060  145.0862  160.8059 C.ar    1  UNL1        0.0577
     15 CL        140.5097  145.3975  159.3931 Cl      1  UNL1       -0.0822
     16 C         142.0012  144.0978  161.0772 C.ar    1  UNL1        0.0129
     17 N         141.3254  139.2207  166.0671 N.pl3   1  UNL1       -0.3184
     18 H         140.6735  138.6105  165.6525 H       1  UNL1        0.1482
     19 O         140.7768  140.7166  171.8516 O.3     1  UNL1       -0.3845
     20 C         140.9140  140.3426  170.4055 C.3     1  UNL1        0.1106
     21 C         139.7286  140.4357  169.4911 C.3     1  UNL1        0.0309
     22 C         139.8657  140.0617  168.0449 C.3     1  UNL1        0.0220
     23 C         141.1882  139.5947  167.5132 C.3     1  UNL1        0.0706
     24 C         142.3737  139.5017  168.4276 C.3     1  UNL1        0.0220
     25 C         142.2365  139.8756  169.8738 C.3     1  UNL1        0.0309
     26 H         139.8644  140.9944  172.0286 H       1  UNL1        0.2103
@<TRIPOS>BOND
     1    20    19    1
     2    20    21    1
     3    21    22    1
     4    22    23    1
     5    23    17    1
     6    17     1    1
     7     1     2   ar
     8     2     3   ar
     9     3     4   ar
    10     4     5   ar
    11     5     6   ar
    12     6     7   ar
    13     7    10    1
    14    10    11   ar
    15    11    12   ar
    16    12    13   ar
    17    13    14   ar
    18    14    15    1
    19    14    16   ar
    20     7     8   ar
    21     8     9   ar
    22    23    24    1
    23    24    25    1
    24    25    20    1
    25     9     1   ar
    26     8     4   ar
    27    16    10   ar
    28    19    26    1
    29    17    18    1
@<TRIPOS>MOLECULE
*****
 26 29 0 0 0
SMALL
GASTEIGER

@<TRIPOS>ATOM
      1 C         139.2621  139.8548  168.0960 C.ar    1  UNL1        0.1488
      2 C         139.0337  140.1365  169.5515 C.ar    1  UNL1        0.0390
      3 C         140.0348  140.9418  170.3256 C.ar    1  UNL1        0.0417
      4 C         141.2642  141.4654  169.6443 C.ar    1  UNL1        0.1640
      5 N         142.4184  142.2822  170.1451 N.ar    1  UNL1       -0.2234
      6 C         143.3601  142.5054  168.9990 C.ar    1  UNL1        0.1197
      7 C         142.7879  141.8265  167.7900 C.ar    1  UNL1        0.1036
      8 N         141.4926  141.1838  168.1888 N.ar    1  UNL1       -0.2096
      9 N         140.4915  140.3785  167.4147 N.ar    1  UNL1       -0.1489
     10 C         143.4030  141.7958  166.4223 C.ar    1  UNL1        0.0201
     11 C         143.9384  143.0572  165.8122 C.ar    1  UNL1        0.0016
     12 C         144.5535  143.0264  164.4444 C.ar    1  UNL1        0.0009
     13 C         144.6333  141.7343  163.6868 C.ar    1  UNL1        0.0114
     14 C         144.0978  140.4729  164.2969 C.ar    1  UNL1        0.0577
     15 CL        144.1776  139.1807  163.5392 Cl      1  UNL1       -0.0822
     16 C         143.4827  140.5037  165.6646 C.ar    1  UNL1        0.0129
     17 N         138.2610  139.0495  167.3218 N.pl3   1  UNL1       -0.3184
     18 H         137.5314  138.5863  167.7934 H       1  UNL1        0.1482
     19 O         138.7033  138.6513  161.3515 O.3     1  UNL1       -0.3845
     20 C         138.5927  138.7508  162.8440 C.3     1  UNL1        0.1106
     21 C         138.1308  140.0292  163.4782 C.3     1  UNL1        0.0309
     22 C         138.0202  140.1288  164.9709 C.3     1  UNL1        0.0220
     23 C         138.3715  138.9500  165.8293 C.3     1  UNL1        0.0706
     24 C         138.8334  137.6715  165.1950 C.3     1  UNL1        0.0220
     25 C         138.9440  137.5719  163.7024 C.3     1  UNL1        0.0309
     26 H         138.4409  139.4948  160.9508 H       1  UNL1        0.2103
@<TRIPOS>BOND
     1    20    19    1
     2    20    21    1
     3    21    22    1
     4    22    23    1
     5    23    17    1
     6    17     1    1
     7     1     2   ar
     8     2     3   ar
     9     3     4   ar
    10     4     5   ar
    11     5     6   ar
    12     6     7   ar
    13     7    10    1
    14    10    11   ar
    15    11    12   ar
    16    12    13   ar
    17    13    14   ar
    18    14    15    1
    19    14    16   ar
    20     7     8   ar
    21     8     9   ar
    22    23    24    1
    23    24    25    1
    24    25    20    1
    25     9     1   ar
    26     8     4   ar
    27    16    10   ar
    28    19    26    1
    29    17    18    1
@<TRIPOS>MOLECULE
*****
 26 29 0 0 0
SMALL
GASTEIGER

@<TRIPOS>ATOM
      1 C         143.0919  142.4154  167.1188 C.ar    1  UNL1        0.1488
      2 C         143.3287  142.0178  168.5456 C.ar    1  UNL1        0.0390
      3 C         142.3299  141.1561  169.2597 C.ar    1  UNL1        0.0417
      4 C         141.0943  140.6921  168.5469 C.ar    1  UNL1        0.1640
      5 N         139.9406  139.8413  168.9886 N.ar    1  UNL1       -0.2234
      6 C         138.9908  139.7131  167.8348 C.ar    1  UNL1        0.1197
      7 C         139.5575  140.4847  166.6800 C.ar    1  UNL1        0.1036
      8 N         140.8575  141.0897  167.1201 N.ar    1  UNL1       -0.2096
      9 N         141.8563  141.9514  166.4061 N.ar    1  UNL1       -0.1489
     10 C         138.9337  140.6263  165.3232 C.ar    1  UNL1        0.0201
     11 C         138.4111  141.9585  164.8734 C.ar    1  UNL1        0.0016
     12 C         137.7873  142.1002  163.5167 C.ar    1  UNL1        0.0009
     13 C         137.6860  140.9098  162.6097 C.ar    1  UNL1        0.0114
     14 C         138.2086  139.5776  163.0595 C.ar    1  UNL1        0.0577
     15 CL        138.1073  138.3871  162.1525 Cl      1  UNL1       -0.0822
     16 C         138.8324  139.4360  164.4163 C.ar    1  UNL1        0.0129
     17 N         144.0907  143.2771  166.4047 N.pl3   1  UNL1       -0.3184
     18 H         144.6059  143.9510  166.9044 H       1  UNL1        0.1482
     19 O         144.9463  142.6168  160.5029 O.3     1  UNL1       -0.3845
     20 C         144.7324  142.7819  161.9784 C.3     1  UNL1        0.1106
     21 C         143.9666  143.9624  162.4977 C.3     1  UNL1        0.0309
     22 C         143.7527  144.1275  163.9732 C.3     1  UNL1        0.0220
     23 C         144.3046  143.1121  164.9293 C.3     1  UNL1        0.0706
     24 C         145.0705  141.9315  164.4099 C.3     1  UNL1        0.0220
     25 C         145.2844  141.7664  162.9345 C.3     1  UNL1        0.0309
     26 H         144.5286  143.3542  160.0311 H       1  UNL1        0.2103
@<TRIPOS>BOND
     1    20    19    1
     2    20    21    1
     3    21    22    1
     4    22    23    1
     5    23    17    1
     6    17     1    1
     7     1     2   ar
     8     2     3   ar
     9     3     4   ar
    10     4     5   ar
    11     5     6   ar
    12     6     7   ar
    13     7    10    1
    14    10    11   ar
    15    11    12   ar
    16    12    13   ar
    17    13    14   ar
    18    14    15    1
    19    14    16   ar
    20     7     8   ar
    21     8     9   ar
    22    23    24    1
    23    24    25    1
    24    25    20    1
    25     9     1   ar
    26     8     4   ar
    27    16    10   ar
    28    19    26    1
    29    17    18    1
@<TRIPOS>MOLECULE
*****
 26 29 0 0 0
SMALL
GASTEIGER

@<TRIPOS>ATOM
      1 C         143.6763  142.6447  163.4396 C.ar    1  UNL1        0.1488
      2 C         145.1177  142.2937  163.2180 C.ar    1  UNL1        0.0390
      3 C         145.6788  141.0282  163.7957 C.ar    1  UNL1        0.0417
      4 C         144.7985  140.1138  164.5950 C.ar    1  UNL1        0.1640
      5 N         145.0688  138.8083  165.2827 N.ar    1  UNL1       -0.2234
      6 C         143.7944  138.3526  165.9293 C.ar    1  UNL1        0.1197
      7 C         142.7365  139.3763  165.6413 C.ar    1  UNL1        0.1036
      8 N         143.3571  140.4648  164.8167 N.ar    1  UNL1       -0.2096
      9 N         142.7960  141.7302  164.2390 N.ar    1  UNL1       -0.1489
     10 C         141.3087  139.3213  166.0978 C.ar    1  UNL1        0.0201
     11 C         140.2632  138.7032  165.2175 C.ar    1  UNL1        0.0016
     12 C         138.8354  138.6481  165.6740 C.ar    1  UNL1        0.0009
     13 C         138.4531  139.2111  167.0106 C.ar    1  UNL1        0.0114
     14 C         139.4986  139.8292  167.8909 C.ar    1  UNL1        0.0577
     15 CL        139.1163  140.3923  169.2277 Cl      1  UNL1       -0.0822
     16 C         140.9264  139.8843  167.4344 C.ar    1  UNL1        0.0129
     17 N         143.1151  143.9102  162.8619 N.pl3   1  UNL1       -0.3184
     18 H         143.7210  144.6016  162.5099 H       1  UNL1        0.1482
     19 O         137.1776  144.7578  162.6968 O.3     1  UNL1       -0.3845
     20 C         138.6620  144.5459  162.7381 C.3     1  UNL1        0.1106
     21 C         139.3634  143.9226  161.5679 C.3     1  UNL1        0.0309
     22 C         140.8478  143.7106  161.6091 C.3     1  UNL1        0.0220
     23 C         141.6308  144.1221  162.8206 C.3     1  UNL1        0.0706
     24 C         140.9293  144.7454  163.9909 C.3     1  UNL1        0.0220
     25 C         139.4449  144.9573  163.9496 C.3     1  UNL1        0.0309
     26 H         136.8290  144.4393  161.8495 H       1  UNL1        0.2103
@<TRIPOS>BOND
     1    20    19    1
     2    20    21    1
     3    21    22    1
     4    22    23    1
     5    23    17    1
     6    17     1    1
     7     1     2   ar
     8     2     3   ar
     9     3     4   ar
    10     4     5   ar
    11     5     6   ar
    12     6     7   ar
    13     7    10    1
    14    10    11   ar
    15    11    12   ar
    16    12    13   ar
    17    13    14   ar
    18    14    15    1
    19    14    16   ar
    20     7     8   ar
    21     8     9   ar
    22    23    24    1
    23    24    25    1
    24    25    20    1
    25     9     1   ar
    26     8     4   ar
    27    16    10   ar
    28    19    26    1
    29    17    18    1
@<TRIPOS>MOLECULE
*****
 26 29 0 0 0
SMALL
GASTEIGER

@<TRIPOS>ATOM
      1 C         141.9642  139.0502  165.4689 C.ar    1  UNL1        0.1488
      2 C         141.6318  137.6235  165.1469 C.ar    1  UNL1        0.0390
      3 C         140.4950  137.3091  164.2202 C.ar    1  UNL1        0.0417
      4 C         139.6907  138.4215  163.6155 C.ar    1  UNL1        0.1640
      5 N         138.5220  138.4187  162.6751 N.ar    1  UNL1       -0.2234
      6 C         138.1322  139.8437  162.4160 C.ar    1  UNL1        0.1197
      7 C         139.0599  140.7273  163.1963 C.ar    1  UNL1        0.1036
      8 N         140.0231  139.8482  163.9376 N.ar    1  UNL1       -0.2096
      9 N         141.1599  140.1626  164.8643 N.ar    1  UNL1       -0.1489
     10 C         139.0297  142.2266  163.2294 C.ar    1  UNL1        0.0201
     11 C         139.3134  143.0102  161.9822 C.ar    1  UNL1        0.0016
     12 C         139.2833  144.5095  162.0153 C.ar    1  UNL1        0.0009
     13 C         138.9694  145.2253  163.2955 C.ar    1  UNL1        0.0114
     14 C         138.6858  144.4417  164.5427 C.ar    1  UNL1        0.0577
     15 CL        138.3719  145.1575  165.8231 Cl      1  UNL1       -0.0822
     16 C         138.7159  142.9424  164.5096 C.ar    1  UNL1        0.0129
     17 N         143.1011  139.3647  166.3957 N.pl3   1  UNL1       -0.3184
     18 H         144.0215  139.1200  166.1464 H       1  UNL1        0.1482
     19 O         142.0387  142.1139  171.6219 O.3     1  UNL1       -0.3845
     20 C         142.3043  141.4266  170.3154 C.3     1  UNL1        0.1106
     21 C         142.5782  142.2374  169.0835 C.3     1  UNL1        0.0309
     22 C         142.8438  141.5501  167.7769 C.3     1  UNL1        0.0220
     23 C         142.8355  140.0520  167.7022 C.3     1  UNL1        0.0706
     24 C         142.5616  139.2412  168.9342 C.3     1  UNL1        0.0220
     25 C         142.2960  139.9285  170.2407 C.3     1  UNL1        0.0309
     26 H         142.0808  143.0748  171.4962 H       1  UNL1        0.2103
@<TRIPOS>BOND
     1    20    19    1
     2    20    21    1
     3    21    22    1
     4    22    23    1
     5    23    17    1
     6    17     1    1
     7     1     2   ar
     8     2     3   ar
     9     3     4   ar
    10     4     5   ar
    11     5     6   ar
    12     6     7   ar
    13     7    10    1
    14    10    11   ar
    15    11    12   ar
    16    12    13   ar
    17    13    14   ar
    18    14    15    1
    19    14    16   ar
    20     7     8   ar
    21     8     9   ar
    22    23    24    1
    23    24    25    1
    24    25    20    1
    25     9     1   ar
    26     8     4   ar
    27    16    10   ar
    28    19    26    1
    29    17    18    1
@<TRIPOS>MOLECULE
*****
 26 29 0 0 0
SMALL
GASTEIGER

@<TRIPOS>ATOM
      1 C         143.5199  142.5891  166.3617 C.ar    1  UNL1        0.1488
      2 C         144.4101  143.5546  165.6369 C.ar    1  UNL1        0.0390
      3 C         144.4559  143.5521  164.1376 C.ar    1  UNL1        0.0417
      4 C         143.6114  142.5841  163.3631 C.ar    1  UNL1        0.1640
      5 N         143.4479  142.3496  161.8906 N.ar    1  UNL1       -0.2234
      6 C         142.4566  141.2392  161.7053 C.ar    1  UNL1        0.1197
      7 C         142.0074  140.7875  163.0633 C.ar    1  UNL1        0.1036
      8 N         142.7211  141.6187  164.0879 N.ar    1  UNL1       -0.2096
      9 N         142.6754  141.6212  165.5872 N.ar    1  UNL1       -0.1489
     10 C         141.0182  139.6961  163.3470 C.ar    1  UNL1        0.0201
     11 C         141.2212  138.7869  164.5226 C.ar    1  UNL1        0.0016
     12 C         140.2320  137.6955  164.8063 C.ar    1  UNL1        0.0009
     13 C         139.0399  137.5134  163.9144 C.ar    1  UNL1        0.0114
     14 C         138.8369  138.4227  162.7388 C.ar    1  UNL1        0.0577
     15 CL        137.6446  138.2406  161.8468 Cl      1  UNL1       -0.0822
     16 C         139.8261  139.5140  162.4551 C.ar    1  UNL1        0.0129
     17 N         143.4741  142.5916  167.8610 N.pl3   1  UNL1       -0.3184
     18 H         144.1631  143.0730  168.3737 H       1  UNL1        0.1482
     19 O         139.0921  139.6682  170.7335 O.3     1  UNL1       -0.3845
     20 C         140.1876  140.3991  170.0154 C.3     1  UNL1        0.1106
     21 C         141.4921  139.7120  169.7397 C.3     1  UNL1        0.0309
     22 C         142.5877  140.4428  169.0215 C.3     1  UNL1        0.0220
     23 C         142.3786  141.8608  168.5791 C.3     1  UNL1        0.0706
     24 C         141.0740  142.5479  168.8549 C.3     1  UNL1        0.0220
     25 C         139.9785  141.8170  169.5730 C.3     1  UNL1        0.0309
     26 H         139.3888  138.7697  170.9470 H       1  UNL1        0.2103
@<TRIPOS>BOND
     1    20    19    1
     2    20    21    1
     3    21    22    1
     4    22    23    1
     5    23    17    1
     6    17     1    1
     7     1     2   ar
     8     2     3   ar
     9     3     4   ar
    10     4     5   ar
    11     5     6   ar
    12     6     7   ar
    13     7    10    1
    14    10    11   ar
    15    11    12   ar
    16    12    13   ar
    17    13    14   ar
    18    14    15    1
    19    14    16   ar
    20     7     8   ar
    21     8     9   ar
    22    23    24    1
    23    24    25    1
    24    25    20    1
    25     9     1   ar
    26     8     4   ar
    27    16    10   ar
    28    19    26    1
    29    17    18    1
@<TRIPOS>MOLECULE
*****
 26 29 0 0 0
SMALL
GASTEIGER

@<TRIPOS>ATOM
      1 C         138.7534  139.2007  166.6973 C.ar    1  UNL1        0.1488
      2 C         138.6221  137.7842  166.2218 C.ar    1  UNL1        0.0390
      3 C         138.6577  137.4797  164.7535 C.ar    1  UNL1        0.0417
      4 C         138.8246  138.5917  163.7607 C.ar    1  UNL1        0.1640
      5 N         138.8952  138.5973  162.2623 N.ar    1  UNL1       -0.2234
      6 C         139.0701  140.0173  161.8119 C.ar    1  UNL1        0.1197
      7 C         139.1077  140.8893  163.0318 C.ar    1  UNL1        0.1036
      8 N         138.9559  140.0082  164.2363 N.ar    1  UNL1       -0.2096
      9 N         138.9203  140.3127  165.7046 N.ar    1  UNL1       -0.1489
     10 C         139.2687  142.3805  163.0450 C.ar    1  UNL1        0.0201
     11 C         138.0788  143.2654  162.8191 C.ar    1  UNL1        0.0016
     12 C         138.2398  144.7567  162.8323 C.ar    1  UNL1        0.0009
     13 C         139.5907  145.3631  163.0714 C.ar    1  UNL1        0.0114
     14 C         140.7806  144.4782  163.2974 C.ar    1  UNL1        0.0577
     15 CL        142.1317  145.0847  163.5365 Cl      1  UNL1       -0.0822
     16 C         140.6196  142.9870  163.2842 C.ar    1  UNL1        0.0129
     17 N         138.7178  139.5053  168.1657 N.pl3   1  UNL1       -0.3184
     18 H         137.9460  139.2240  168.7082 H       1  UNL1        0.1482
     19 O         143.2796  142.4380  170.7326 O.3     1  UNL1       -0.3845
     20 C         142.1392  141.7048  170.0909 C.3     1  UNL1        0.1106
     21 C         140.7283  142.0046  170.5027 C.3     1  UNL1        0.0309
     22 C         139.5878  141.2714  169.8610 C.3     1  UNL1        0.0220
     23 C         139.8582  140.2385  168.8074 C.3     1  UNL1        0.0706
     24 C         141.2692  139.9387  168.3956 C.3     1  UNL1        0.0220
     25 C         142.4096  140.6719  169.0374 C.3     1  UNL1        0.0309
     26 H         142.9336  143.0652  171.3867 H       1  UNL1        0.2103
@<TRIPOS>BOND
     1    20    19    1
     2    20    21    1
     3    21    22    1
     4    22    23    1
     5    23    17    1
     6    17     1    1
     7     1     2   ar
     8     2     3   ar
     9     3     4   ar
    10     4     5   ar
    11     5     6   ar
    12     6     7   ar
    13     7    10    1
    14    10    11   ar
    15    11    12   ar
    16    12    13   ar
    17    13    14   ar
    18    14    15    1
    19    14    16   ar
    20     7     8   ar
    21     8     9   ar
    22    23    24    1
    23    24    25    1
    24    25    20    1
    25     9     1   ar
    26     8     4   ar
    27    16    10   ar
    28    19    26    1
    29    17    18    1
