@<TRIPOS>MOLECULE
*****
 41 46 0 0 0
SMALL
GASTEIGER

@<TRIPOS>ATOM
      1 C         142.7550  139.4734  159.9480 C.ar    1  UNL1        0.1200
      2 N         142.6009  138.1250  159.3094 N.ar    1  UNL1       -0.2309
      3 C         142.8948  138.2690  157.8455 C.ar    1  UNL1        0.0997
      4 C         143.2305  139.7066  157.5795 C.ar    1  UNL1        0.0961
      5 N         143.1441  140.4509  158.8789 N.ar    1  UNL1       -0.3123
      6 C         142.8592  137.1688  156.8266 C.ar    1  UNL1        0.0193
      7 C         142.7355  137.5002  155.3689 C.ar    1  UNL1        0.0038
      8 C         142.6999  136.4000  154.3500 C.ar    1  UNL1        0.0296
      9 C         142.7879  134.9683  154.7889 C.ar    1  UNL1        0.1440
     10 F         142.7523  133.8681  153.7700 F       1  UNL1       -0.2042
     11 C         142.9116  134.6369  156.2466 C.ar    1  UNL1        0.0988
     12 C         142.9473  135.7371  157.2655 C.ar    1  UNL1        0.0077
     13 C         142.9997  133.2052  156.6853 C.3     1  UNL1        0.4207
     14 F         143.0878  131.7735  157.1240 F       1  UNL1       -0.1658
     15 F         141.6211  132.9561  156.1492 F       1  UNL1       -0.1658
     16 F         144.3783  133.4543  157.2213 F       1  UNL1       -0.1658
     17 N         142.1553  140.4202  164.3062 N.pl3   1  UNL1       -0.2934
     18 C         141.3024  141.0889  163.2693 C.3     1  UNL1        0.0926
     19 C         141.5023  140.7733  161.8165 C.3     1  UNL1        0.0290
     20 C         142.5551  139.7890  161.4007 C.3     1  UNL1        0.0603
     21 C         143.4079  139.1203  162.4378 C.3     1  UNL1        0.0290
     22 C         143.2080  139.4359  163.8905 C.3     1  UNL1        0.0926
     23 N         139.5330  139.7378  168.7400 N.pl3   1  UNL1       -0.3428
     24 C         140.6442  140.3945  167.9759 C.ar    1  UNL1        0.1257
     25 N         141.5555  141.3668  168.6645 N.ar    1  UNL1       -0.2097
     26 C         142.6667  142.0235  167.9004 C.ar    1  UNL1        0.2012
     27 N         142.8667  141.7080  166.4476 N.ar    1  UNL1       -0.2092
     28 C         141.9554  140.7357  165.7590 C.ar    1  UNL1        0.1320
     29 C         140.8441  140.0790  166.5232 C.ar    1  UNL1        0.0402
     30 H         139.4018  139.9449  169.6935 H       1  UNL1        0.1437
     31 H         138.9349  139.0997  168.2880 H       1  UNL1        0.1437
     32 C         139.9328  139.1067  165.8345 C.3     1  UNL1        0.0278
     33 C         138.4585  139.0428  165.5654 C.3     1  UNL1        0.0046
     34 C         138.6440  137.7318  164.8606 C.3     1  UNL1        0.0007
     35 C         140.1183  137.7956  165.1297 C.3     1  UNL1        0.0046
     36 C         143.4017  141.9156  159.0748 C.3     1  UNL1        0.1245
     37 C         144.6384  142.3705  159.7916 C.3     1  UNL1        0.0969
     38 N         144.5816  142.6905  161.2559 N.3     1  UNL1       -0.2710
     39 C         145.2772  142.1771  162.4816 C.3     1  UNL1        0.0736
     40 C         144.5012  143.1433  163.3267 C.3     1  UNL1        0.0346
     41 C         143.8056  143.6567  162.1010 C.3     1  UNL1        0.0736
@<TRIPOS>BOND
     1    23    24    1
     2    24    25   ar
     3    25    26   ar
     4    26    27   ar
     5    27    28   ar
     6    28    17    1
     7    17    18    1
     8    18    19    1
     9    19    20    1
    10    20     1    1
    11     1     2   ar
    12     2     3   ar
    13     3     6    1
    14     6     7   ar
    15     7     8   ar
    16     8     9   ar
    17     9    10    1
    18     9    11   ar
    19    11    13    1
    20    13    14    1
    21    13    15    1
    22    13    16    1
    23    11    12   ar
    24     3     4   ar
    25     4     5   ar
    26     5    36    1
    27    36    37    1
    28    37    38    1
    29    38    39    1
    30    39    40    1
    31    40    41    1
    32    20    21    1
    33    21    22    1
    34    28    29   ar
    35    29    32    1
    36    32    33    1
    37    33    34    1
    38    34    35    1
    39    29    24   ar
    40    35    32    1
    41    22    17    1
    42     5     1   ar
    43    41    38    1
    44    12     6   ar
    45    23    30    1
    46    23    31    1
@<TRIPOS>MOLECULE
*****
 41 46 0 0 0
SMALL
GASTEIGER

@<TRIPOS>ATOM
      1 C         142.7720  139.7186  160.1877 C.ar    1  UNL1        0.1200
      2 N         142.5960  138.3997  159.4951 N.ar    1  UNL1       -0.2309
      3 C         142.9170  138.5925  158.0426 C.ar    1  UNL1        0.0997
      4 C         143.2914  140.0305  157.8375 C.ar    1  UNL1        0.0961
      5 N         143.2018  140.7264  159.1633 N.ar    1  UNL1       -0.3123
      6 C         142.8716  137.5333  156.9814 C.ar    1  UNL1        0.0193
      7 C         142.7792  137.9232  155.5359 C.ar    1  UNL1        0.0038
      8 C         142.7338  136.8640  154.4748 C.ar    1  UNL1        0.0296
      9 C         142.7808  135.4149  154.8592 C.ar    1  UNL1        0.1440
     10 F         142.7354  134.3557  153.7981 F       1  UNL1       -0.2042
     11 C         142.8733  135.0250  156.3047 C.ar    1  UNL1        0.0988
     12 C         142.9187  136.0842  157.3658 C.ar    1  UNL1        0.0077
     13 C         142.9203  133.5758  156.6890 C.3     1  UNL1        0.4207
     14 F         142.9673  132.1266  157.0733 F       1  UNL1       -0.1658
     15 F         141.5456  133.3806  156.1213 F       1  UNL1       -0.1658
     16 F         144.2949  133.7709  157.2567 F       1  UNL1       -0.1658
     17 N         142.1243  140.5122  164.5695 N.pl3   1  UNL1       -0.2934
     18 C         143.1230  139.4814  164.1337 C.3     1  UNL1        0.0926
     19 C         143.3389  139.2169  162.6730 C.3     1  UNL1        0.0290
     20 C         142.5561  139.9831  161.6483 C.3     1  UNL1        0.0603
     21 C         141.5574  141.0140  162.0842 C.3     1  UNL1        0.0290
     22 C         141.3415  141.2785  163.5448 C.3     1  UNL1        0.0926
     23 N         139.4031  139.7404  168.9284 N.pl3   1  UNL1       -0.3428
     24 C         140.5477  140.3909  168.2096 C.ar    1  UNL1        0.1257
     25 N         141.4764  141.3059  168.9513 N.ar    1  UNL1       -0.2097
     26 C         142.6211  141.9563  168.2325 C.ar    1  UNL1        0.2012
     27 N         142.8370  141.6918  166.7720 N.ar    1  UNL1       -0.2092
     28 C         141.9084  140.7768  166.0302 C.ar    1  UNL1        0.1320
     29 C         140.7637  140.1263  166.7490 C.ar    1  UNL1        0.0402
     30 H         139.2614  139.9140  169.8870 H       1  UNL1        0.1437
     31 H         138.7936  139.1399  168.4415 H       1  UNL1        0.1437
     32 C         139.8350  139.2113  166.0071 C.3     1  UNL1        0.0278
     33 C         139.9876  137.9103  165.2762 C.3     1  UNL1        0.0046
     34 C         138.5217  137.9172  164.9580 C.3     1  UNL1        0.0007
     35 C         138.3691  139.2182  165.6889 C.3     1  UNL1        0.0046
     36 C         143.4912  142.1758  159.4196 C.3     1  UNL1        0.1245
     37 C         144.7366  142.5734  160.1550 C.3     1  UNL1        0.0969
     38 N         144.6893  142.8133  161.6349 N.3     1  UNL1       -0.2710
     39 C         144.0082  143.8085  162.5269 C.3     1  UNL1        0.0736
     40 C         144.6226  143.1526  163.7278 C.3     1  UNL1        0.0346
     41 C         145.3037  142.1574  162.8359 C.3     1  UNL1        0.0736
@<TRIPOS>BOND
     1    23    24    1
     2    24    25   ar
     3    25    26   ar
     4    26    27   ar
     5    27    28   ar
     6    28    17    1
     7    17    18    1
     8    18    19    1
     9    19    20    1
    10    20     1    1
    11     1     2   ar
    12     2     3   ar
    13     3     6    1
    14     6     7   ar
    15     7     8   ar
    16     8     9   ar
    17     9    10    1
    18     9    11   ar
    19    11    13    1
    20    13    14    1
    21    13    15    1
    22    13    16    1
    23    11    12   ar
    24     3     4   ar
    25     4     5   ar
    26     5    36    1
    27    36    37    1
    28    37    38    1
    29    38    39    1
    30    39    40    1
    31    40    41    1
    32    20    21    1
    33    21    22    1
    34    28    29   ar
    35    29    32    1
    36    32    33    1
    37    33    34    1
    38    34    35    1
    39    29    24   ar
    40    35    32    1
    41    22    17    1
    42     5     1   ar
    43    41    38    1
    44    12     6   ar
    45    23    30    1
    46    23    31    1
@<TRIPOS>MOLECULE
*****
 41 46 0 0 0
SMALL
GASTEIGER

@<TRIPOS>ATOM
      1 C         141.5687  140.8878  163.3336 C.ar    1  UNL1        0.1200
      2 N         141.1349  141.2860  164.7133 N.ar    1  UNL1       -0.2309
      3 C         141.3602  140.1168  165.6255 C.ar    1  UNL1        0.0997
      4 C         141.9334  138.9961  164.8097 C.ar    1  UNL1        0.0961
      5 N         142.0622  139.4726  163.3933 N.ar    1  UNL1       -0.3123
      6 C         141.0645  140.0756  167.0955 C.ar    1  UNL1        0.0193
      7 C         139.6737  140.3450  167.5885 C.ar    1  UNL1        0.0038
      8 C         139.3779  140.3038  169.0585 C.ar    1  UNL1        0.0296
      9 C         140.4729  139.9932  170.0354 C.ar    1  UNL1        0.1440
     10 F         140.1772  139.9519  171.5054 F       1  UNL1       -0.2042
     11 C         141.8637  139.7237  169.5424 C.ar    1  UNL1        0.0988
     12 C         142.1595  139.7649  168.0724 C.ar    1  UNL1        0.0077
     13 C         142.9587  139.4131  170.5193 C.3     1  UNL1        0.4207
     14 F         144.0537  139.1024  171.4963 F       1  UNL1       -0.1658
     15 F         142.6827  137.9470  170.3626 F       1  UNL1       -0.1658
     16 F         143.2348  140.8791  170.6761 F       1  UNL1       -0.1658
     17 N         141.4163  143.4834  159.6608 N.pl3   1  UNL1       -0.2934
     18 C         142.3411  143.8334  160.7886 C.3     1  UNL1        0.0926
     19 C         142.3920  142.9682  162.0130 C.3     1  UNL1        0.0290
     20 C         141.5179  141.7530  162.1094 C.3     1  UNL1        0.0603
     21 C         140.5930  141.4030  160.9815 C.3     1  UNL1        0.0290
     22 C         140.5422  142.2682  159.7572 C.3     1  UNL1        0.0926
     23 N         143.2102  144.7124  154.9415 N.pl3   1  UNL1       -0.3428
     24 C         142.2624  144.9630  156.0768 C.ar    1  UNL1        0.1257
     25 N         141.2639  146.0788  155.9878 N.ar    1  UNL1       -0.2097
     26 C         140.3162  146.3294  157.1232 C.ar    1  UNL1        0.2012
     27 N         140.3669  145.4643  158.3475 N.ar    1  UNL1       -0.2092
     28 C         141.3655  144.3486  158.4364 C.ar    1  UNL1        0.1320
     29 C         142.3132  144.0979  157.3011 C.ar    1  UNL1        0.0402
     30 H         143.1769  145.2802  154.1379 H       1  UNL1        0.1437
     31 H         143.8656  143.9800  154.9999 H       1  UNL1        0.1437
     32 C         143.3118  142.9821  157.3901 C.3     1  UNL1        0.0278
     33 C         144.5971  142.7657  158.1325 C.3     1  UNL1        0.0046
     34 C         144.7240  141.4041  157.5161 C.3     1  UNL1        0.0007
     35 C         143.4386  141.6205  156.7737 C.3     1  UNL1        0.0046
     36 C         142.5915  138.6741  162.2391 C.3     1  UNL1        0.1245
     37 C         141.6908  137.7214  161.5102 C.3     1  UNL1        0.0969
     38 N         140.2019  137.8503  161.6382 N.3     1  UNL1       -0.2710
     39 C         139.0818  138.1882  160.6995 C.3     1  UNL1        0.0736
     40 C         138.0962  138.0326  161.8194 C.3     1  UNL1        0.0346
     41 C         139.2163  137.6947  162.7582 C.3     1  UNL1        0.0736
@<TRIPOS>BOND
     1    23    24    1
     2    24    25   ar
     3    25    26   ar
     4    26    27   ar
     5    27    28   ar
     6    28    17    1
     7    17    18    1
     8    18    19    1
     9    19    20    1
    10    20     1    1
    11     1     2   ar
    12     2     3   ar
    13     3     6    1
    14     6     7   ar
    15     7     8   ar
    16     8     9   ar
    17     9    10    1
    18     9    11   ar
    19    11    13    1
    20    13    14    1
    21    13    15    1
    22    13    16    1
    23    11    12   ar
    24     3     4   ar
    25     4     5   ar
    26     5    36    1
    27    36    37    1
    28    37    38    1
    29    38    39    1
    30    39    40    1
    31    40    41    1
    32    20    21    1
    33    21    22    1
    34    28    29   ar
    35    29    32    1
    36    32    33    1
    37    33    34    1
    38    34    35    1
    39    29    24   ar
    40    35    32    1
    41    22    17    1
    42     5     1   ar
    43    41    38    1
    44    12     6   ar
    45    23    30    1
    46    23    31    1
@<TRIPOS>MOLECULE
*****
 41 46 0 0 0
SMALL
GASTEIGER

@<TRIPOS>ATOM
      1 C         140.6191  141.0213  163.0412 C.ar    1  UNL1        0.1200
      2 N         141.5328  141.1157  164.2271 N.ar    1  UNL1       -0.2309
      3 C         140.7846  141.7945  165.3359 C.ar    1  UNL1        0.0997
      4 C         139.4085  142.1197  164.8352 C.ar    1  UNL1        0.0961
      5 N         139.3062  141.6418  163.4170 N.ar    1  UNL1       -0.3123
      6 C         141.3187  142.0954  166.7049 C.ar    1  UNL1        0.0193
      7 C         142.7911  141.9968  166.9738 C.ar    1  UNL1        0.0038
      8 C         143.3252  142.2976  168.3429 C.ar    1  UNL1        0.0296
      9 C         142.3869  142.6971  169.4429 C.ar    1  UNL1        0.1440
     10 F         142.9210  142.9979  170.8119 F       1  UNL1       -0.2042
     11 C         140.9145  142.7957  169.1739 C.ar    1  UNL1        0.0988
     12 C         140.3804  142.4948  167.8049 C.ar    1  UNL1        0.0077
     13 C         139.9763  143.1951  170.2739 C.3     1  UNL1        0.4207
     14 F         139.0381  143.5947  171.3740 F       1  UNL1       -0.1658
     15 F         140.4003  144.6253  170.1162 F       1  UNL1       -0.1658
     16 F         139.5523  141.7650  170.4317 F       1  UNL1       -0.1658
     17 N         141.6378  139.1970  159.0557 N.pl3   1  UNL1       -0.2934
     18 C         142.2879  140.4800  159.4814 C.3     1  UNL1        0.0926
     19 C         141.9483  141.0882  160.8099 C.3     1  UNL1        0.0290
     20 C         140.9587  140.4133  161.7127 C.3     1  UNL1        0.0603
     21 C         140.3086  139.1302  161.2870 C.3     1  UNL1        0.0290
     22 C         140.6481  138.5221  159.9585 C.3     1  UNL1        0.0926
     23 N         140.8956  138.8991  153.9215 N.pl3   1  UNL1       -0.3428
     24 C         141.6062  138.4399  155.1601 C.ar    1  UNL1        0.1257
     25 N         142.6564  137.3727  155.0702 N.ar    1  UNL1       -0.2097
     26 C         143.3670  136.9135  156.3088 C.ar    1  UNL1        0.2012
     27 N         143.0275  137.5216  157.6373 N.ar    1  UNL1       -0.2092
     28 C         141.9774  138.5889  157.7272 C.ar    1  UNL1        0.1320
     29 C         141.2667  139.0480  156.4886 C.ar    1  UNL1        0.0402
     30 H         141.1184  138.5000  153.0495 H       1  UNL1        0.1437
     31 H         140.2063  139.5996  153.9805 H       1  UNL1        0.1437
     32 C         140.2165  140.1153  156.5785 C.3     1  UNL1        0.0278
     33 C         140.1926  141.6002  156.3673 C.3     1  UNL1        0.0046
     34 C         138.7314  141.6248  156.7056 C.3     1  UNL1        0.0007
     35 C         138.7554  140.1399  156.9168 C.3     1  UNL1        0.0046
     36 C         138.1024  141.7632  162.5305 C.3     1  UNL1        0.1245
     37 C         138.0671  142.8050  161.4518 C.3     1  UNL1        0.0969
     38 N         138.9406  144.0201  161.5540 N.3     1  UNL1       -0.2710
     39 C         139.0564  145.1655  162.5155 C.3     1  UNL1        0.0736
     40 C         140.1760  145.7385  161.6983 C.3     1  UNL1        0.0346
     41 C         140.0603  144.5931  160.7367 C.3     1  UNL1        0.0736
@<TRIPOS>BOND
     1    23    24    1
     2    24    25   ar
     3    25    26   ar
     4    26    27   ar
     5    27    28   ar
     6    28    17    1
     7    17    18    1
     8    18    19    1
     9    19    20    1
    10    20     1    1
    11     1     2   ar
    12     2     3   ar
    13     3     6    1
    14     6     7   ar
    15     7     8   ar
    16     8     9   ar
    17     9    10    1
    18     9    11   ar
    19    11    13    1
    20    13    14    1
    21    13    15    1
    22    13    16    1
    23    11    12   ar
    24     3     4   ar
    25     4     5   ar
    26     5    36    1
    27    36    37    1
    28    37    38    1
    29    38    39    1
    30    39    40    1
    31    40    41    1
    32    20    21    1
    33    21    22    1
    34    28    29   ar
    35    29    32    1
    36    32    33    1
    37    33    34    1
    38    34    35    1
    39    29    24   ar
    40    35    32    1
    41    22    17    1
    42     5     1   ar
    43    41    38    1
    44    12     6   ar
    45    23    30    1
    46    23    31    1
@<TRIPOS>MOLECULE
*****
 41 46 0 0 0
SMALL
GASTEIGER

@<TRIPOS>ATOM
      1 C         140.2109  140.9117  163.3849 C.ar    1  UNL1        0.1200
      2 N         140.6416  141.8844  164.4423 N.ar    1  UNL1       -0.2309
      3 C         141.0019  141.1036  165.6714 C.ar    1  UNL1        0.0997
      4 C         140.7937  139.6483  165.3735 C.ar    1  UNL1        0.0961
      5 N         140.3049  139.5297  163.9603 N.ar    1  UNL1       -0.3123
      6 C         141.4854  141.6774  166.9702 C.ar    1  UNL1        0.0193
      7 C         142.9567  141.7799  167.2434 C.ar    1  UNL1        0.0038
      8 C         143.4402  142.3536  168.5422 C.ar    1  UNL1        0.0296
      9 C         142.4524  142.8248  169.5679 C.ar    1  UNL1        0.1440
     10 F         142.9358  143.3985  170.8668 F       1  UNL1       -0.2042
     11 C         140.9810  142.7223  169.2948 C.ar    1  UNL1        0.0988
     12 C         140.4975  142.1485  167.9959 C.ar    1  UNL1        0.0077
     13 C         139.9932  143.1934  170.3205 C.3     1  UNL1        0.4207
     14 F         139.0053  143.6647  171.3463 F       1  UNL1       -0.1658
     15 F         140.3785  144.6154  170.0385 F       1  UNL1       -0.1658
     16 F         139.6078  141.7715  170.6026 F       1  UNL1       -0.1658
     17 N         138.8716  141.9562  159.2177 N.pl3   1  UNL1       -0.2934
     18 C         140.0417  141.0402  159.4219 C.3     1  UNL1        0.0926
     19 C         140.4881  140.6920  160.8110 C.3     1  UNL1        0.0290
     20 C         139.7644  141.2599  161.9958 C.3     1  UNL1        0.0603
     21 C         138.5943  142.1759  161.7916 C.3     1  UNL1        0.0290
     22 C         138.1479  142.5241  160.4025 C.3     1  UNL1        0.0926
     23 N         139.2735  144.9276  154.9739 N.pl3   1  UNL1       -0.3428
     24 C         138.6261  143.7901  155.7068 C.ar    1  UNL1        0.1257
     25 N         137.5323  143.0008  155.0506 N.ar    1  UNL1       -0.2097
     26 C         136.8849  141.8633  155.7834 C.ar    1  UNL1        0.2012
     27 N         137.3313  141.5151  157.1724 N.ar    1  UNL1       -0.2092
     28 C         138.4251  142.3044  157.8286 C.ar    1  UNL1        0.1320
     29 C         139.0725  143.4419  157.0958 C.ar    1  UNL1        0.0402
     30 H         138.9805  145.1561  154.0623 H       1  UNL1        0.1437
     31 H         139.9914  145.4456  155.4046 H       1  UNL1        0.1437
     32 C         140.1663  144.2312  157.7521 C.3     1  UNL1        0.0278
     33 C         141.6556  144.0905  157.8633 C.3     1  UNL1        0.0046
     34 C         141.7132  145.3473  158.6801 C.3     1  UNL1        0.0007
     35 C         140.2240  145.4880  158.5689 C.3     1  UNL1        0.0046
     36 C         139.9690  138.2532  163.2478 C.3     1  UNL1        0.1245
     37 C         141.0621  137.3061  162.8502 C.3     1  UNL1        0.0969
     38 N         142.2639  137.8156  162.1113 N.3     1  UNL1       -0.2710
     39 C         142.7476  137.7413  160.6934 C.3     1  UNL1        0.0736
     40 C         143.9636  138.5362  161.0666 C.3     1  UNL1        0.0346
     41 C         143.4800  138.6105  162.4845 C.3     1  UNL1        0.0736
@<TRIPOS>BOND
     1    23    24    1
     2    24    25   ar
     3    25    26   ar
     4    26    27   ar
     5    27    28   ar
     6    28    17    1
     7    17    18    1
     8    18    19    1
     9    19    20    1
    10    20     1    1
    11     1     2   ar
    12     2     3   ar
    13     3     6    1
    14     6     7   ar
    15     7     8   ar
    16     8     9   ar
    17     9    10    1
    18     9    11   ar
    19    11    13    1
    20    13    14    1
    21    13    15    1
    22    13    16    1
    23    11    12   ar
    24     3     4   ar
    25     4     5   ar
    26     5    36    1
    27    36    37    1
    28    37    38    1
    29    38    39    1
    30    39    40    1
    31    40    41    1
    32    20    21    1
    33    21    22    1
    34    28    29   ar
    35    29    32    1
    36    32    33    1
    37    33    34    1
    38    34    35    1
    39    29    24   ar
    40    35    32    1
    41    22    17    1
    42     5     1   ar
    43    41    38    1
    44    12     6   ar
    45    23    30    1
    46    23    31    1
@<TRIPOS>MOLECULE
*****
 41 46 0 0 0
SMALL
GASTEIGER

@<TRIPOS>ATOM
      1 C         143.0570  141.2870  161.5629 C.ar    1  UNL1        0.1200
      2 N         143.0614  140.6851  160.1889 N.ar    1  UNL1       -0.2309
      3 C         144.0986  141.3988  159.3735 C.ar    1  UNL1        0.0997
      4 C         144.7353  142.4417  160.2436 C.ar    1  UNL1        0.0961
      5 N         144.0916  142.3726  161.5967 N.ar    1  UNL1       -0.3123
      6 C         144.4394  141.1187  157.9399 C.ar    1  UNL1        0.0193
      7 C         143.7075  140.0447  157.1910 C.ar    1  UNL1        0.0038
      8 C         144.0482  139.7646  155.7573 C.ar    1  UNL1        0.0296
      9 C         145.1209  140.5586  155.0725 C.ar    1  UNL1        0.1440
     10 F         145.4616  140.2785  153.6389 F       1  UNL1       -0.2042
     11 C         145.8528  141.6327  155.8214 C.ar    1  UNL1        0.0988
     12 C         145.5120  141.9127  157.2550 C.ar    1  UNL1        0.0077
     13 C         146.9253  142.4266  155.1365 C.3     1  UNL1        0.4207
     14 F         147.9980  143.2206  154.4516 F       1  UNL1       -0.1658
     15 F         147.9449  141.4077  155.5519 F       1  UNL1       -0.1658
     16 F         145.9060  143.4455  154.7210 F       1  UNL1       -0.1658
     17 N         140.4058  140.0525  164.9829 N.pl3   1  UNL1       -0.2934
     18 C         141.6628  139.2867  164.6942 C.3     1  UNL1        0.0926
     19 C         142.5466  139.6982  163.5541 C.3     1  UNL1        0.0290
     20 C         142.1733  140.8755  162.7029 C.3     1  UNL1        0.0603
     21 C         140.9162  141.6413  162.9917 C.3     1  UNL1        0.0290
     22 C         140.0325  141.2298  164.1317 C.3     1  UNL1        0.0926
     23 N         139.2492  140.1639  170.0475 N.pl3   1  UNL1       -0.3428
     24 C         138.9437  139.6967  168.6552 C.ar    1  UNL1        0.1257
     25 N         137.7545  138.8181  168.4030 N.ar    1  UNL1       -0.2097
     26 C         137.4490  138.3508  167.0107 C.ar    1  UNL1        0.2012
     27 N         138.3327  138.7623  165.8707 N.ar    1  UNL1       -0.2092
     28 C         139.5220  139.6410  166.1230 C.ar    1  UNL1        0.1320
     29 C         139.8274  140.1082  167.5152 C.ar    1  UNL1        0.0402
     30 H         138.6691  139.8939  170.7957 H       1  UNL1        0.1437
     31 H         140.0297  140.7406  170.2130 H       1  UNL1        0.1437
     32 C         141.0167  140.9869  167.7674 C.3     1  UNL1        0.0278
     33 C         142.4599  140.7488  168.0997 C.3     1  UNL1        0.0046
     34 C         142.6986  142.2294  168.1241 C.3     1  UNL1        0.0007
     35 C         141.2554  142.4676  167.7918 C.3     1  UNL1        0.0046
     36 C         144.4240  143.2373  162.7764 C.3     1  UNL1        0.1245
     37 C         143.9033  144.6423  162.8471 C.3     1  UNL1        0.0969
     38 N         142.4292  144.9016  162.7490 N.3     1  UNL1       -0.2710
     39 C         141.3326  145.1763  163.7349 C.3     1  UNL1        0.0736
     40 C         140.3444  145.2683  162.6102 C.3     1  UNL1        0.0346
     41 C         141.4410  144.9936  161.6243 C.3     1  UNL1        0.0736
@<TRIPOS>BOND
     1    23    24    1
     2    24    25   ar
     3    25    26   ar
     4    26    27   ar
     5    27    28   ar
     6    28    17    1
     7    17    18    1
     8    18    19    1
     9    19    20    1
    10    20     1    1
    11     1     2   ar
    12     2     3   ar
    13     3     6    1
    14     6     7   ar
    15     7     8   ar
    16     8     9   ar
    17     9    10    1
    18     9    11   ar
    19    11    13    1
    20    13    14    1
    21    13    15    1
    22    13    16    1
    23    11    12   ar
    24     3     4   ar
    25     4     5   ar
    26     5    36    1
    27    36    37    1
    28    37    38    1
    29    38    39    1
    30    39    40    1
    31    40    41    1
    32    20    21    1
    33    21    22    1
    34    28    29   ar
    35    29    32    1
    36    32    33    1
    37    33    34    1
    38    34    35    1
    39    29    24   ar
    40    35    32    1
    41    22    17    1
    42     5     1   ar
    43    41    38    1
    44    12     6   ar
    45    23    30    1
    46    23    31    1
@<TRIPOS>MOLECULE
*****
 41 46 0 0 0
SMALL
GASTEIGER

@<TRIPOS>ATOM
      1 C         141.7809  142.4910  163.3264 C.ar    1  UNL1        0.1200
      2 N         141.1696  142.2567  164.6759 N.ar    1  UNL1       -0.2309
      3 C         142.2695  142.2900  165.6952 C.ar    1  UNL1        0.0997
      4 C         143.5607  142.5450  164.9756 C.ar    1  UNL1        0.0961
      5 N         143.2587  142.6692  163.5116 N.ar    1  UNL1       -0.3123
      6 C         142.1068  142.1015  167.1744 C.ar    1  UNL1        0.0193
      7 C         143.2523  142.3928  168.0981 C.ar    1  UNL1        0.0038
      8 C         143.0896  142.2042  169.5772 C.ar    1  UNL1        0.0296
      9 C         141.7814  141.7245  170.1328 C.ar    1  UNL1        0.1440
     10 F         141.6188  141.5360  171.6119 F       1  UNL1       -0.2042
     11 C         140.6360  141.4333  169.2091 C.ar    1  UNL1        0.0988
     12 C         140.7986  141.6218  167.7299 C.ar    1  UNL1        0.0077
     13 C         139.3279  140.9536  169.7647 C.3     1  UNL1        0.4207
     14 F         138.0197  140.4738  170.3203 F       1  UNL1       -0.1658
     15 F         139.5276  139.6284  169.0908 F       1  UNL1       -0.1658
     16 F         139.1281  142.2787  170.4385 F       1  UNL1       -0.1658
     17 N         139.5699  142.6344  159.4096 N.pl3   1  UNL1       -0.2934
     18 C         140.4829  141.4838  159.7138 C.3     1  UNL1        0.0926
     19 C         141.2199  141.4360  161.0194 C.3     1  UNL1        0.0290
     20 C         141.0440  142.5388  162.0208 C.3     1  UNL1        0.0603
     21 C         140.1309  143.6894  161.7166 C.3     1  UNL1        0.0290
     22 C         139.3939  143.7372  160.4110 C.3     1  UNL1        0.0926
     23 N         138.9673  144.6373  154.6530 N.pl3   1  UNL1       -0.3428
     24 C         138.5316  143.6837  155.7257 C.ar    1  UNL1        0.1257
     25 N         137.3589  142.7779  155.4929 N.ar    1  UNL1       -0.2097
     26 C         136.9232  141.8242  156.5656 C.ar    1  UNL1        0.2012
     27 N         137.6601  141.7764  157.8712 N.ar    1  UNL1       -0.2092
     28 C         138.8329  142.6822  158.1040 C.ar    1  UNL1        0.1320
     29 C         139.2686  143.6358  157.0313 C.ar    1  UNL1        0.0402
     30 H         138.4836  144.6687  153.7961 H       1  UNL1        0.1437
     31 H         139.7370  145.2318  154.8059 H       1  UNL1        0.1437
     32 C         140.4414  144.5416  157.2642 C.3     1  UNL1        0.0278
     33 C         141.9317  144.3718  157.2515 C.3     1  UNL1        0.0046
     34 C         142.0999  145.8226  157.5935 C.3     1  UNL1        0.0007
     35 C         140.6096  145.9924  157.6063 C.3     1  UNL1        0.0046
     36 C         144.2590  142.9265  162.4238 C.3     1  UNL1        0.1245
     37 C         145.0853  141.7977  161.8823 C.3     1  UNL1        0.0969
     38 N         144.5574  140.3943  161.9245 N.3     1  UNL1       -0.2710
     39 C         144.2307  139.4162  163.0138 C.3     1  UNL1        0.0736
     40 C         143.8107  138.4097  161.9840 C.3     1  UNL1        0.0346
     41 C         144.1374  139.3878  160.8947 C.3     1  UNL1        0.0736
@<TRIPOS>BOND
     1    23    24    1
     2    24    25   ar
     3    25    26   ar
     4    26    27   ar
     5    27    28   ar
     6    28    17    1
     7    17    18    1
     8    18    19    1
     9    19    20    1
    10    20     1    1
    11     1     2   ar
    12     2     3   ar
    13     3     6    1
    14     6     7   ar
    15     7     8   ar
    16     8     9   ar
    17     9    10    1
    18     9    11   ar
    19    11    13    1
    20    13    14    1
    21    13    15    1
    22    13    16    1
    23    11    12   ar
    24     3     4   ar
    25     4     5   ar
    26     5    36    1
    27    36    37    1
    28    37    38    1
    29    38    39    1
    30    39    40    1
    31    40    41    1
    32    20    21    1
    33    21    22    1
    34    28    29   ar
    35    29    32    1
    36    32    33    1
    37    33    34    1
    38    34    35    1
    39    29    24   ar
    40    35    32    1
    41    22    17    1
    42     5     1   ar
    43    41    38    1
    44    12     6   ar
    45    23    30    1
    46    23    31    1
@<TRIPOS>MOLECULE
*****
 41 46 0 0 0
SMALL
GASTEIGER

@<TRIPOS>ATOM
      1 C         141.5354  141.0464  163.4302 C.ar    1  UNL1        0.1200
      2 N         141.3259  141.5257  164.8360 N.ar    1  UNL1       -0.2309
      3 C         141.8158  140.4572  165.7679 C.ar    1  UNL1        0.0997
      4 C         142.3281  139.3175  164.9379 C.ar    1  UNL1        0.0961
      5 N         142.1548  139.6817  163.4932 N.ar    1  UNL1       -0.3123
      6 C         141.7968  140.5177  167.2665 C.ar    1  UNL1        0.0193
      7 C         142.5512  139.4986  168.0680 C.ar    1  UNL1        0.0038
      8 C         142.5322  139.5592  169.5666 C.ar    1  UNL1        0.0296
      9 C         141.7587  140.6388  170.2638 C.ar    1  UNL1        0.1440
     10 F         141.7396  140.6993  171.7625 F       1  UNL1       -0.2042
     11 C         141.0042  141.6578  169.4624 C.ar    1  UNL1        0.0988
     12 C         141.0232  141.5973  167.9637 C.ar    1  UNL1        0.0077
     13 C         140.2307  142.7374  170.1596 C.3     1  UNL1        0.4207
     14 F         139.4572  143.8170  170.8570 F       1  UNL1       -0.1658
     15 F         141.4103  143.6569  170.0446 F       1  UNL1       -0.1658
     16 F         139.0511  141.8180  170.2747 F       1  UNL1       -0.1658
     17 N         140.4894  143.3059  159.6818 N.pl3   1  UNL1       -0.2934
     18 C         141.9241  143.0073  160.0018 C.3     1  UNL1        0.0926
     19 C         142.2728  142.2541  161.2513 C.3     1  UNL1        0.0290
     20 C         141.1868  141.7995  162.1807 C.3     1  UNL1        0.0603
     21 C         139.7520  142.0982  161.8607 C.3     1  UNL1        0.0290
     22 C         139.4034  142.8513  160.6113 C.3     1  UNL1        0.0926
     23 N         138.7341  143.3421  154.7912 N.pl3   1  UNL1       -0.3428
     24 C         139.2630  144.0771  155.9870 C.ar    1  UNL1        0.1257
     25 N         139.4433  145.5653  155.9334 N.ar    1  UNL1       -0.2097
     26 C         139.9722  146.3003  157.1292 C.ar    1  UNL1        0.2012
     27 N         140.3209  145.5472  158.3786 N.ar    1  UNL1       -0.2092
     28 C         140.1407  144.0591  158.4323 C.ar    1  UNL1        0.1320
     29 C         139.6117  143.3240  157.2365 C.ar    1  UNL1        0.0402
     30 H         138.5052  143.8364  153.9711 H       1  UNL1        0.1437
     31 H         138.6158  142.3654  154.8264 H       1  UNL1        0.1437
     32 C         139.4315  141.8358  157.2902 C.3     1  UNL1        0.0278
     33 C         138.2569  140.9143  157.4351 C.3     1  UNL1        0.0046
     34 C         139.1765  139.7312  157.3661 C.3     1  UNL1        0.0007
     35 C         140.3512  140.6528  157.2213 C.3     1  UNL1        0.0046
     36 C         142.5343  138.8306  162.3178 C.3     1  UNL1        0.1245
     37 C         141.5993  137.7631  161.8316 C.3     1  UNL1        0.0969
     38 N         140.1169  137.9877  161.8757 N.3     1  UNL1       -0.2710
     39 C         139.0480  137.8134  162.9135 C.3     1  UNL1        0.0736
     40 C         138.0204  138.3053  161.9378 C.3     1  UNL1        0.0346
     41 C         139.0892  138.4795  160.9000 C.3     1  UNL1        0.0736
@<TRIPOS>BOND
     1    23    24    1
     2    24    25   ar
     3    25    26   ar
     4    26    27   ar
     5    27    28   ar
     6    28    17    1
     7    17    18    1
     8    18    19    1
     9    19    20    1
    10    20     1    1
    11     1     2   ar
    12     2     3   ar
    13     3     6    1
    14     6     7   ar
    15     7     8   ar
    16     8     9   ar
    17     9    10    1
    18     9    11   ar
    19    11    13    1
    20    13    14    1
    21    13    15    1
    22    13    16    1
    23    11    12   ar
    24     3     4   ar
    25     4     5   ar
    26     5    36    1
    27    36    37    1
    28    37    38    1
    29    38    39    1
    30    39    40    1
    31    40    41    1
    32    20    21    1
    33    21    22    1
    34    28    29   ar
    35    29    32    1
    36    32    33    1
    37    33    34    1
    38    34    35    1
    39    29    24   ar
    40    35    32    1
    41    22    17    1
    42     5     1   ar
    43    41    38    1
    44    12     6   ar
    45    23    30    1
    46    23    31    1
@<TRIPOS>MOLECULE
*****
 41 46 0 0 0
SMALL
GASTEIGER

@<TRIPOS>ATOM
      1 C         141.4525  141.3126  162.9396 C.ar    1  UNL1        0.1200
      2 N         141.6012  140.5197  164.2042 N.ar    1  UNL1       -0.2309
      3 C         142.0731  141.4501  165.2819 C.ar    1  UNL1        0.0997
      4 C         142.2162  142.8181  164.6833 C.ar    1  UNL1        0.0961
      5 N         141.8326  142.7331  163.2357 N.ar    1  UNL1       -0.3123
      6 C         142.3529  141.0780  166.7078 C.ar    1  UNL1        0.0193
      7 C         142.3013  139.6400  167.1317 C.ar    1  UNL1        0.0038
      8 C         142.5811  139.2679  168.5576 C.ar    1  UNL1        0.0296
      9 C         142.9125  140.3337  169.5596 C.ar    1  UNL1        0.1440
     10 F         143.1923  139.9616  170.9855 F       1  UNL1       -0.2042
     11 C         142.9642  141.7717  169.1358 C.ar    1  UNL1        0.0988
     12 C         142.6844  142.1438  167.7099 C.ar    1  UNL1        0.0077
     13 C         143.2957  142.8374  170.1379 C.3     1  UNL1        0.4207
     14 F         143.6272  143.9033  171.1400 F       1  UNL1       -0.1658
     15 F         144.7479  142.4737  170.0444 F       1  UNL1       -0.1658
     16 F         141.8435  143.2012  170.2314 F       1  UNL1       -0.1658
     17 N         140.1031  139.7110  158.9566 N.pl3   1  UNL1       -0.2934
     18 C         141.5633  139.9294  159.2214 C.3     1  UNL1        0.0926
     19 C         142.0131  140.4633  160.5491 C.3     1  UNL1        0.0290
     20 C         141.0027  140.7787  161.6120 C.3     1  UNL1        0.0603
     21 C         139.5425  140.5602  161.3471 C.3     1  UNL1        0.0290
     22 C         139.0927  140.0264  160.0195 C.3     1  UNL1        0.0926
     23 N         138.3147  140.5334  154.1478 N.pl3   1  UNL1       -0.3428
     24 C         138.7590  139.5883  155.2245 C.ar    1  UNL1        0.1257
     25 N         138.7536  138.1095  154.9737 N.ar    1  UNL1       -0.2097
     26 C         139.1979  137.1645  156.0505 C.ar    1  UNL1        0.2012
     27 N         139.6478  137.6983  157.3781 N.ar    1  UNL1       -0.2092
     28 C         139.6532  139.1771  157.6290 C.ar    1  UNL1        0.1320
     29 C         139.2089  140.1221  156.5522 C.ar    1  UNL1        0.0402
     30 H         138.0194  140.1830  153.2764 H       1  UNL1        0.1437
     31 H         138.3183  141.5040  154.3124 H       1  UNL1        0.1437
     32 C         139.2144  141.6011  156.8031 C.3     1  UNL1        0.0278
     33 C         138.1749  142.6186  157.1694 C.3     1  UNL1        0.0046
     34 C         139.2220  143.6925  157.1579 C.3     1  UNL1        0.0007
     35 C         140.2615  142.6750  156.7916 C.3     1  UNL1        0.0046
     36 C         141.8297  143.8691  162.2562 C.3     1  UNL1        0.1245
     37 C         140.5984  144.7085  162.0848 C.3     1  UNL1        0.0969
     38 N         139.4012  144.4707  162.9566 N.3     1  UNL1       -0.2710
     39 C         139.0453  144.7865  164.3790 C.3     1  UNL1        0.0736
     40 C         137.7080  144.1343  164.1893 C.3     1  UNL1        0.0346
     41 C         138.0639  143.8184  162.7668 C.3     1  UNL1        0.0736
@<TRIPOS>BOND
     1    23    24    1
     2    24    25   ar
     3    25    26   ar
     4    26    27   ar
     5    27    28   ar
     6    28    17    1
     7    17    18    1
     8    18    19    1
     9    19    20    1
    10    20     1    1
    11     1     2   ar
    12     2     3   ar
    13     3     6    1
    14     6     7   ar
    15     7     8   ar
    16     8     9   ar
    17     9    10    1
    18     9    11   ar
    19    11    13    1
    20    13    14    1
    21    13    15    1
    22    13    16    1
    23    11    12   ar
    24     3     4   ar
    25     4     5   ar
    26     5    36    1
    27    36    37    1
    28    37    38    1
    29    38    39    1
    30    39    40    1
    31    40    41    1
    32    20    21    1
    33    21    22    1
    34    28    29   ar
    35    29    32    1
    36    32    33    1
    37    33    34    1
    38    34    35    1
    39    29    24   ar
    40    35    32    1
    41    22    17    1
    42     5     1   ar
    43    41    38    1
    44    12     6   ar
    45    23    30    1
    46    23    31    1
