@<TRIPOS>MOLECULE
*****
 34 38 0 0 0
SMALL
GASTEIGER

@<TRIPOS>ATOM
      1 O         145.4832  141.7254  161.7653 O.2     1  UNL1       -0.2745
      2 C         144.6287  142.5431  162.6878 C.2     1  UNL1        0.2301
      3 N         143.4615  143.3125  162.1443 N.am    1  UNL1       -0.2791
      4 C         142.5224  144.1693  162.9406 C.3     1  UNL1        0.0952
      5 C         141.5089  144.7465  161.9974 C.3     1  UNL1        0.0442
      6 C         141.8216  144.2465  160.6183 C.3     1  UNL1        0.0579
      7 C         143.0283  143.3603  160.7090 C.3     1  UNL1        0.0967
      8 C         141.9479  143.8731  159.1709 C.3     1  UNL1        0.0941
      9 N         140.7460  144.7112  158.8498 N.pl3   1  UNL1       -0.3073
     10 C         140.6197  145.0847  160.2971 C.3     1  UNL1        0.0941
     11 C         139.9855  145.0398  157.5993 C.ar    1  UNL1        0.0478
     12 C         139.9903  146.4414  157.0650 C.ar    1  UNL1        0.0145
     13 C         139.2298  146.7700  155.8145 C.ar    1  UNL1        0.0013
     14 C         138.4644  145.6970  155.0985 C.ar    1  UNL1        0.0001
     15 C         138.4595  144.2954  155.6328 C.ar    1  UNL1        0.0013
     16 C         139.2201  143.9669  156.8832 C.ar    1  UNL1        0.0145
     17 C         144.9416  142.5914  164.1541 C.3     1  UNL1        0.1116
     18 C         144.0455  141.8957  165.1355 C.ar    1  UNL1       -0.0129
     19 C         143.5172  142.6392  166.3264 C.ar    1  UNL1       -0.0007
     20 C         142.6212  141.9436  167.3077 C.ar    1  UNL1        0.0363
     21 C         142.2535  140.5045  167.0983 C.ar    1  UNL1        0.1337
     22 O         141.3574  139.8088  168.0797 O.3     1  UNL1       -0.5055
     23 C         142.7818  139.7611  165.9074 C.ar    1  UNL1        0.0363
     24 C         143.6779  140.4567  164.9260 C.ar    1  UNL1       -0.0007
     25 H         141.0273  140.2732  168.8236 H       1  UNL1        0.2922
     26 C         140.3807  145.6629  162.3683 C.3     1  UNL1        0.0888
     27 N         139.6048  145.4247  163.6297 N.pl3   1  UNL1       -0.3326
     28 H         139.4264  146.1712  164.2463 H       1  UNL1        0.1468
     29 C         139.1006  144.0491  163.9517 C.ar    1  UNL1        0.0446
     30 C         137.9564  143.4687  163.1747 C.ar    1  UNL1        0.0143
     31 C         137.4522  142.0932  163.4966 C.ar    1  UNL1        0.0013
     32 C         138.0923  141.2980  164.5956 C.ar    1  UNL1        0.0001
     33 C         139.2366  141.8783  165.3728 C.ar    1  UNL1        0.0013
     34 C         139.7407  143.2539  165.0508 C.ar    1  UNL1        0.0143
@<TRIPOS>BOND
     1     1     2    2
     2     2    17    1
     3    17    18    1
     4    18    19   ar
     5    19    20   ar
     6    20    21   ar
     7    21    22    1
     8    21    23   ar
     9    23    24   ar
    10     2     3   am
    11     3     4    1
    12     4     5    1
    13     5    26    1
    14    26    27    1
    15    27    29    1
    16    29    30   ar
    17    30    31   ar
    18    31    32   ar
    19    32    33   ar
    20    33    34   ar
    21     5     6    1
    22     6     7    1
    23     6     8    1
    24     8     9    1
    25     9    11    1
    26    11    12   ar
    27    12    13   ar
    28    13    14   ar
    29    14    15   ar
    30    15    16   ar
    31     9    10    1
    32    24    18   ar
    33     7     3    1
    34    16    11   ar
    35    34    29   ar
    36    10     6    1
    37    22    25    1
    38    27    28    1
@<TRIPOS>MOLECULE
*****
 34 38 0 0 0
SMALL
GASTEIGER

@<TRIPOS>ATOM
      1 O         139.5620  144.4070  162.9687 O.2     1  UNL1       -0.2745
      2 C         140.5205  143.5456  163.7364 C.2     1  UNL1        0.2301
      3 N         141.6830  142.9079  163.0352 N.am    1  UNL1       -0.2791
      4 C         142.7187  142.0263  163.6678 C.3     1  UNL1        0.0952
      5 C         143.6898  141.6135  162.6017 C.3     1  UNL1        0.0442
      6 C         143.2543  142.2399  161.3103 C.3     1  UNL1        0.0579
      7 C         142.0141  143.0399  161.5781 C.3     1  UNL1        0.0967
      8 C         143.0060  142.7589  159.9249 C.3     1  UNL1        0.0941
      9 N         144.2225  142.0311  159.4343 N.pl3   1  UNL1       -0.3073
     10 C         144.4707  141.5121  160.8196 C.3     1  UNL1        0.0941
     11 C         144.9070  141.8834  158.1078 C.ar    1  UNL1        0.0478
     12 C         146.1379  142.6856  157.8056 C.ar    1  UNL1        0.0145
     13 C         146.8224  142.5380  156.4791 C.ar    1  UNL1        0.0013
     14 C         146.2762  141.5881  155.4548 C.ar    1  UNL1        0.0001
     15 C         145.0454  140.7858  155.7570 C.ar    1  UNL1        0.0013
     16 C         144.3608  140.9335  157.0835 C.ar    1  UNL1        0.0145
     17 C         140.3163  143.3219  165.2056 C.3     1  UNL1        0.1116
     18 C         139.7343  142.0284  165.6936 C.ar    1  UNL1       -0.0129
     19 C         140.1508  141.4731  167.0233 C.ar    1  UNL1       -0.0007
     20 C         139.5688  140.1795  167.5113 C.ar    1  UNL1        0.0363
     21 C         138.5704  139.4415  166.6695 C.ar    1  UNL1        0.1337
     22 O         137.9884  138.1479  167.1576 O.3     1  UNL1       -0.5055
     23 C         138.1540  139.9969  165.3399 C.ar    1  UNL1        0.0363
     24 C         138.7360  141.2904  164.8519 C.ar    1  UNL1       -0.0007
     25 H         138.2486  137.8009  167.9882 H       1  UNL1        0.2922
     26 C         144.8863  140.7294  162.7935 C.3     1  UNL1        0.0888
     27 N         144.7509  139.4356  163.5404 N.pl3   1  UNL1       -0.3326
     28 H         145.5330  139.0440  163.9923 H       1  UNL1        0.1468
     29 C         143.4239  138.7387  163.5989 C.ar    1  UNL1        0.0446
     30 C         142.7365  138.5440  164.9178 C.ar    1  UNL1        0.0143
     31 C         141.4095  137.8470  164.9763 C.ar    1  UNL1        0.0013
     32 C         140.7699  137.3448  163.7159 C.ar    1  UNL1        0.0001
     33 C         141.4574  137.5395  162.3969 C.ar    1  UNL1        0.0013
     34 C         142.7844  138.2365  162.3384 C.ar    1  UNL1        0.0143
@<TRIPOS>BOND
     1     1     2    2
     2     2    17    1
     3    17    18    1
     4    18    19   ar
     5    19    20   ar
     6    20    21   ar
     7    21    22    1
     8    21    23   ar
     9    23    24   ar
    10     2     3   am
    11     3     4    1
    12     4     5    1
    13     5    26    1
    14    26    27    1
    15    27    29    1
    16    29    30   ar
    17    30    31   ar
    18    31    32   ar
    19    32    33   ar
    20    33    34   ar
    21     5     6    1
    22     6     7    1
    23     6     8    1
    24     8     9    1
    25     9    11    1
    26    11    12   ar
    27    12    13   ar
    28    13    14   ar
    29    14    15   ar
    30    15    16   ar
    31     9    10    1
    32    24    18   ar
    33     7     3    1
    34    16    11   ar
    35    34    29   ar
    36    10     6    1
    37    22    25    1
    38    27    28    1
@<TRIPOS>MOLECULE
*****
 34 38 0 0 0
SMALL
GASTEIGER

@<TRIPOS>ATOM
      1 O         144.8593  143.1700  165.1213 O.2     1  UNL1       -0.2745
      2 C         143.5687  142.4062  165.0891 C.2     1  UNL1        0.2301
      3 N         142.6745  142.4947  163.8880 N.am    1  UNL1       -0.2791
      4 C         141.3609  141.7918  163.7130 C.3     1  UNL1        0.0952
      5 C         140.8116  142.1643  162.3679 C.3     1  UNL1        0.0442
      6 C         141.7856  143.0972  161.7116 C.3     1  UNL1        0.0579
      7 C         142.9369  143.3014  162.6510 C.3     1  UNL1        0.0967
      8 C         142.6078  144.0326  160.8753 C.3     1  UNL1        0.0941
      9 N         141.5722  143.9740  159.7916 N.pl3   1  UNL1       -0.3073
     10 C         140.7500  143.0386  160.6279 C.3     1  UNL1        0.0941
     11 C         141.4214  144.5939  158.4341 C.ar    1  UNL1        0.0478
     12 C         140.3745  145.6425  158.2006 C.ar    1  UNL1        0.0145
     13 C         140.2236  146.2624  156.8430 C.ar    1  UNL1        0.0013
     14 C         141.1196  145.8338  155.7190 C.ar    1  UNL1        0.0001
     15 C         142.1665  144.7853  155.9526 C.ar    1  UNL1        0.0013
     16 C         142.3174  144.1654  157.3101 C.ar    1  UNL1        0.0145
     17 C         143.1722  141.5540  166.2582 C.3     1  UNL1        0.1116
     18 C         142.3476  142.1381  167.3667 C.ar    1  UNL1       -0.0129
     19 C         142.9586  142.3615  168.7183 C.ar    1  UNL1       -0.0007
     20 C         142.1340  142.9456  169.8268 C.ar    1  UNL1        0.0363
     21 C         140.6984  143.3062  169.5837 C.ar    1  UNL1        0.1337
     22 O         139.8738  143.8904  170.6923 O.3     1  UNL1       -0.5055
     23 C         140.0875  143.0828  168.2321 C.ar    1  UNL1        0.0363
     24 C         140.9121  142.4987  167.1236 C.ar    1  UNL1       -0.0007
     25 H         140.2554  144.0299  171.5366 H       1  UNL1        0.2922
     26 C         139.5157  141.6874  161.7820 C.3     1  UNL1        0.0888
     27 N         138.3627  141.3554  162.6822 N.pl3   1  UNL1       -0.3326
     28 H         137.5436  141.9008  162.6545 H       1  UNL1        0.1468
     29 C         138.4578  140.1923  163.6246 C.ar    1  UNL1        0.0446
     30 C         138.1661  140.3833  165.0835 C.ar    1  UNL1        0.0143
     31 C         138.2612  139.2203  166.0261 C.ar    1  UNL1        0.0013
     32 C         138.6479  137.8661  165.5096 C.ar    1  UNL1        0.0001
     33 C         138.9396  137.6751  164.0507 C.ar    1  UNL1        0.0013
     34 C         138.8446  138.8381  163.1082 C.ar    1  UNL1        0.0143
@<TRIPOS>BOND
     1     1     2    2
     2     2    17    1
     3    17    18    1
     4    18    19   ar
     5    19    20   ar
     6    20    21   ar
     7    21    22    1
     8    21    23   ar
     9    23    24   ar
    10     2     3   am
    11     3     4    1
    12     4     5    1
    13     5    26    1
    14    26    27    1
    15    27    29    1
    16    29    30   ar
    17    30    31   ar
    18    31    32   ar
    19    32    33   ar
    20    33    34   ar
    21     5     6    1
    22     6     7    1
    23     6     8    1
    24     8     9    1
    25     9    11    1
    26    11    12   ar
    27    12    13   ar
    28    13    14   ar
    29    14    15   ar
    30    15    16   ar
    31     9    10    1
    32    24    18   ar
    33     7     3    1
    34    16    11   ar
    35    34    29   ar
    36    10     6    1
    37    22    25    1
    38    27    28    1
@<TRIPOS>MOLECULE
*****
 34 38 0 0 0
SMALL
GASTEIGER

@<TRIPOS>ATOM
      1 O         143.1897  139.4806  166.4519 O.2     1  UNL1       -0.2745
      2 C         142.9924  140.8431  165.8561 C.2     1  UNL1        0.2301
      3 N         142.6486  140.9837  164.4029 N.am    1  UNL1       -0.2791
      4 C         142.4229  142.2734  163.6710 C.3     1  UNL1        0.0952
      5 C         142.1050  141.9460  162.2421 C.3     1  UNL1        0.0442
      6 C         142.1343  140.4540  162.0909 C.3     1  UNL1        0.0579
      7 C         142.4702  139.8592  163.4263 C.3     1  UNL1        0.0967
      8 C         142.1094  139.0022  161.7142 C.3     1  UNL1        0.0941
      9 N         141.7652  139.3745  160.3024 N.pl3   1  UNL1       -0.3073
     10 C         141.7901  140.8263  160.6791 C.3     1  UNL1        0.0941
     11 C         141.5043  138.6112  159.0377 C.ar    1  UNL1        0.0478
     12 C         142.6403  137.9573  158.3084 C.ar    1  UNL1        0.0145
     13 C         142.3793  137.1941  157.0438 C.ar    1  UNL1        0.0013
     14 C         140.9824  137.0847  156.5084 C.ar    1  UNL1        0.0001
     15 C         139.8465  137.7386  157.2377 C.ar    1  UNL1        0.0013
     16 C         140.1074  138.5019  158.5024 C.ar    1  UNL1        0.0145
     17 C         143.1390  142.0650  166.7139 C.3     1  UNL1        0.1116
     18 C         142.4463  142.1362  168.0424 C.ar    1  UNL1       -0.0129
     19 C         140.9529  142.2625  168.1036 C.ar    1  UNL1       -0.0007
     20 C         140.2602  142.3338  169.4322 C.ar    1  UNL1        0.0363
     21 C         141.0609  142.2787  170.6995 C.ar    1  UNL1        0.1337
     22 O         140.3681  142.3500  172.0281 O.3     1  UNL1       -0.5055
     23 C         142.5543  142.1524  170.6381 C.ar    1  UNL1        0.0363
     24 C         143.2470  142.0812  169.3096 C.ar    1  UNL1       -0.0007
     25 H         139.4352  142.4289  172.0664 H       1  UNL1        0.2922
     26 C         141.8097  142.9368  161.1553 C.3     1  UNL1        0.0888
     27 N         141.0117  144.1696  161.4609 N.pl3   1  UNL1       -0.3326
     28 H         141.1988  145.0086  160.9809 H       1  UNL1        0.1468
     29 C         139.9287  144.1242  162.4977 C.ar    1  UNL1        0.0446
     30 C         140.0856  144.8863  163.7801 C.ar    1  UNL1        0.0143
     31 C         139.0026  144.8409  164.8170 C.ar    1  UNL1        0.0013
     32 C         137.7626  144.0333  164.5714 C.ar    1  UNL1        0.0001
     33 C         137.6056  143.2711  163.2889 C.ar    1  UNL1        0.0013
     34 C         138.6887  143.3166  162.2521 C.ar    1  UNL1        0.0143
@<TRIPOS>BOND
     1     1     2    2
     2     2    17    1
     3    17    18    1
     4    18    19   ar
     5    19    20   ar
     6    20    21   ar
     7    21    22    1
     8    21    23   ar
     9    23    24   ar
    10     2     3   am
    11     3     4    1
    12     4     5    1
    13     5    26    1
    14    26    27    1
    15    27    29    1
    16    29    30   ar
    17    30    31   ar
    18    31    32   ar
    19    32    33   ar
    20    33    34   ar
    21     5     6    1
    22     6     7    1
    23     6     8    1
    24     8     9    1
    25     9    11    1
    26    11    12   ar
    27    12    13   ar
    28    13    14   ar
    29    14    15   ar
    30    15    16   ar
    31     9    10    1
    32    24    18   ar
    33     7     3    1
    34    16    11   ar
    35    34    29   ar
    36    10     6    1
    37    22    25    1
    38    27    28    1
@<TRIPOS>MOLECULE
*****
 34 38 0 0 0
SMALL
GASTEIGER

@<TRIPOS>ATOM
      1 O         138.3951  145.2574  162.1972 O.2     1  UNL1       -0.2745
      2 C         139.8193  145.2079  161.7290 C.2     1  UNL1        0.2301
      3 N         140.8661  144.5513  162.5793 N.am    1  UNL1       -0.2791
      4 C         142.3229  144.4258  162.2444 C.3     1  UNL1        0.0952
      5 C         142.9970  143.7019  163.3720 C.3     1  UNL1        0.0442
      6 C         141.9569  143.3800  164.4037 C.3     1  UNL1        0.0579
      7 C         140.6400  143.9049  163.9139 C.3     1  UNL1        0.0967
      8 C         141.0933  142.9592  165.5558 C.3     1  UNL1        0.0941
      9 N         142.2899  142.3611  166.2344 N.pl3   1  UNL1       -0.3073
     10 C         143.1535  142.7818  165.0822 C.3     1  UNL1        0.0941
     11 C         142.5254  141.6406  167.5288 C.ar    1  UNL1        0.0478
     12 C         143.1467  142.3633  168.6871 C.ar    1  UNL1        0.0145
     13 C         143.3822  141.6429  169.9815 C.ar    1  UNL1        0.0013
     14 C         142.9964  140.1998  170.1176 C.ar    1  UNL1        0.0001
     15 C         142.3752  139.4771  168.9593 C.ar    1  UNL1        0.0013
     16 C         142.1397  140.1975  167.6649 C.ar    1  UNL1        0.0145
     17 C         140.1967  145.8151  160.4102 C.3     1  UNL1        0.1116
     18 C         140.6359  144.9351  159.2776 C.ar    1  UNL1       -0.0129
     19 C         141.7243  145.3916  158.3519 C.ar    1  UNL1       -0.0007
     20 C         142.1636  144.5116  157.2193 C.ar    1  UNL1        0.0363
     21 C         141.5145  143.1752  157.0125 C.ar    1  UNL1        0.1337
     22 O         141.9538  142.2952  155.8799 O.3     1  UNL1       -0.5055
     23 C         140.4261  142.7188  157.9383 C.ar    1  UNL1        0.0363
     24 C         139.9869  143.5988  159.0709 C.ar    1  UNL1       -0.0007
     25 H         142.6337  142.5804  155.3016 H       1  UNL1        0.2922
     26 C         144.4552  143.3600  163.4535 C.3     1  UNL1        0.0888
     27 N         145.1918  142.9180  162.2239 N.pl3   1  UNL1       -0.3326
     28 H         146.0440  143.3464  161.9799 H       1  UNL1        0.1468
     29 C         144.6300  141.8234  161.3658 C.ar    1  UNL1        0.0446
     30 C         144.5218  140.4281  161.9055 C.ar    1  UNL1        0.0143
     31 C         143.9600  139.3334  161.0476 C.ar    1  UNL1        0.0013
     32 C         143.5063  139.6341  159.6498 C.ar    1  UNL1        0.0001
     33 C         143.6144  141.0296  159.1101 C.ar    1  UNL1        0.0013
     34 C         144.1763  142.1242  159.9681 C.ar    1  UNL1        0.0143
@<TRIPOS>BOND
     1     1     2    2
     2     2    17    1
     3    17    18    1
     4    18    19   ar
     5    19    20   ar
     6    20    21   ar
     7    21    22    1
     8    21    23   ar
     9    23    24   ar
    10     2     3   am
    11     3     4    1
    12     4     5    1
    13     5    26    1
    14    26    27    1
    15    27    29    1
    16    29    30   ar
    17    30    31   ar
    18    31    32   ar
    19    32    33   ar
    20    33    34   ar
    21     5     6    1
    22     6     7    1
    23     6     8    1
    24     8     9    1
    25     9    11    1
    26    11    12   ar
    27    12    13   ar
    28    13    14   ar
    29    14    15   ar
    30    15    16   ar
    31     9    10    1
    32    24    18   ar
    33     7     3    1
    34    16    11   ar
    35    34    29   ar
    36    10     6    1
    37    22    25    1
    38    27    28    1
@<TRIPOS>MOLECULE
*****
 34 38 0 0 0
SMALL
GASTEIGER

@<TRIPOS>ATOM
      1 O         143.3109  144.0091  161.1353 O.2     1  UNL1       -0.2745
      2 C         141.8280  143.8339  160.9925 C.2     1  UNL1        0.2301
      3 N         141.0032  143.4269  162.1774 N.am    1  UNL1       -0.2791
      4 C         139.5184  143.2141  162.1869 C.3     1  UNL1        0.0952
      5 C         139.1160  142.8169  163.5762 C.3     1  UNL1        0.0442
      6 C         140.3520  142.7841  164.4253 C.3     1  UNL1        0.0579
      7 C         141.5184  143.1611  163.5609 C.3     1  UNL1        0.0967
      8 C         141.4439  142.6880  165.4494 C.3     1  UNL1        0.0941
      9 N         140.4358  142.2911  166.4869 N.pl3   1  UNL1       -0.3073
     10 C         139.3440  142.3872  165.4628 C.3     1  UNL1        0.0941
     11 C         140.4951  141.9425  167.9447 C.ar    1  UNL1        0.0478
     12 C         140.4412  143.0282  168.9782 C.ar    1  UNL1        0.0145
     13 C         140.5005  142.6796  170.4359 C.ar    1  UNL1        0.0013
     14 C         140.6137  141.2453  170.8601 C.ar    1  UNL1        0.0001
     15 C         140.6676  140.1596  169.8265 C.ar    1  UNL1        0.0013
     16 C         140.6083  140.5082  168.3688 C.ar    1  UNL1        0.0145
     17 C         141.1699  144.0659  159.6646 C.3     1  UNL1        0.1116
     18 C         140.4980  142.9298  158.9519 C.ar    1  UNL1       -0.0129
     19 C         139.0639  143.0527  158.5296 C.ar    1  UNL1       -0.0007
     20 C         138.3921  141.9167  157.8169 C.ar    1  UNL1        0.0363
     21 C         139.1542  140.6578  157.5265 C.ar    1  UNL1        0.1337
     22 O         138.4822  139.5217  156.8138 O.3     1  UNL1       -0.5055
     23 C         140.5883  140.5349  157.9489 C.ar    1  UNL1        0.0363
     24 C         141.2602  141.6710  158.6615 C.ar    1  UNL1       -0.0007
     25 H         137.5864  139.5985  156.5500 H       1  UNL1        0.2922
     26 C         137.7221  142.5068  164.0357 C.3     1  UNL1        0.0888
     27 N         136.9776  141.3472  163.4433 N.pl3   1  UNL1       -0.3326
     28 H         135.9938  141.3264  163.4740 H       1  UNL1        0.1468
     29 C         137.7321  140.2192  162.8042 C.ar    1  UNL1        0.0446
     30 C         138.4104  139.1907  163.6598 C.ar    1  UNL1        0.0143
     31 C         139.1648  138.0626  163.0207 C.ar    1  UNL1        0.0013
     32 C         139.2410  137.9632  161.5260 C.ar    1  UNL1        0.0001
     33 C         138.5627  138.9918  160.6703 C.ar    1  UNL1        0.0013
     34 C         137.8083  140.1197  161.3094 C.ar    1  UNL1        0.0143
@<TRIPOS>BOND
     1     1     2    2
     2     2    17    1
     3    17    18    1
     4    18    19   ar
     5    19    20   ar
     6    20    21   ar
     7    21    22    1
     8    21    23   ar
     9    23    24   ar
    10     2     3   am
    11     3     4    1
    12     4     5    1
    13     5    26    1
    14    26    27    1
    15    27    29    1
    16    29    30   ar
    17    30    31   ar
    18    31    32   ar
    19    32    33   ar
    20    33    34   ar
    21     5     6    1
    22     6     7    1
    23     6     8    1
    24     8     9    1
    25     9    11    1
    26    11    12   ar
    27    12    13   ar
    28    13    14   ar
    29    14    15   ar
    30    15    16   ar
    31     9    10    1
    32    24    18   ar
    33     7     3    1
    34    16    11   ar
    35    34    29   ar
    36    10     6    1
    37    22    25    1
    38    27    28    1
@<TRIPOS>MOLECULE
*****
 34 38 0 0 0
SMALL
GASTEIGER

@<TRIPOS>ATOM
      1 O         143.4328  139.6870  165.9093 O.2     1  UNL1       -0.2745
      2 C         143.1100  141.1509  165.9642 C.2     1  UNL1        0.2301
      3 N         142.9935  141.9415  164.6948 N.am    1  UNL1       -0.2791
      4 C         142.6779  143.4044  164.5930 C.3     1  UNL1        0.0952
      5 C         142.6615  143.7749  163.1396 C.3     1  UNL1        0.0442
      6 C         142.9670  142.5411  162.3432 C.3     1  UNL1        0.0579
      7 C         143.1722  141.4080  163.3043 C.3     1  UNL1        0.0967
      8 C         143.2505  141.4461  161.3580 C.3     1  UNL1        0.0941
      9 N         143.0877  142.4200  160.2287 N.pl3   1  UNL1       -0.3073
     10 C         142.8041  143.5150  161.2140 C.3     1  UNL1        0.0941
     11 C         143.1730  142.3344  158.7336 C.ar    1  UNL1        0.0478
     12 C         141.9345  142.0862  157.9247 C.ar    1  UNL1        0.0145
     13 C         142.0198  142.0006  156.4296 C.ar    1  UNL1        0.0013
     14 C         143.3437  142.1631  155.7434 C.ar    1  UNL1        0.0001
     15 C         144.5822  142.4113  156.5523 C.ar    1  UNL1        0.0013
     16 C         144.4969  142.4970  158.0474 C.ar    1  UNL1        0.0145
     17 C         142.9037  141.8241  167.2887 C.3     1  UNL1        0.1116
     18 C         142.0505  141.1726  168.3364 C.ar    1  UNL1       -0.0129
     19 C         140.6236  141.5999  168.5139 C.ar    1  UNL1       -0.0007
     20 C         139.7704  140.9484  169.5615 C.ar    1  UNL1        0.0363
     21 C         140.3441  139.8696  170.4316 C.ar    1  UNL1        0.1337
     22 O         139.4908  139.2180  171.4793 O.3     1  UNL1       -0.5055
     23 C         141.7709  139.4423  170.2541 C.ar    1  UNL1        0.0363
     24 C         142.6241  140.0938  169.2064 C.ar    1  UNL1       -0.0007
     25 H         138.5995  139.4850  171.5902 H       1  UNL1        0.2922
     26 C         142.3877  145.1398  162.5808 C.3     1  UNL1        0.0888
     27 N         141.0773  145.8149  162.8585 N.pl3   1  UNL1       -0.3326
     28 H         141.0182  146.7975  162.8497 H       1  UNL1        0.1468
     29 C         139.8569  144.9927  163.1496 C.ar    1  UNL1        0.0446
     30 C         139.3063  144.9352  164.5436 C.ar    1  UNL1        0.0143
     31 C         138.0858  144.1131  164.8348 C.ar    1  UNL1        0.0013
     32 C         137.4160  143.3485  163.7318 C.ar    1  UNL1        0.0001
     33 C         137.9667  143.4059  162.3376 C.ar    1  UNL1        0.0013
     34 C         139.1871  144.2281  162.0465 C.ar    1  UNL1        0.0143
@<TRIPOS>BOND
     1     1     2    2
     2     2    17    1
     3    17    18    1
     4    18    19   ar
     5    19    20   ar
     6    20    21   ar
     7    21    22    1
     8    21    23   ar
     9    23    24   ar
    10     2     3   am
    11     3     4    1
    12     4     5    1
    13     5    26    1
    14    26    27    1
    15    27    29    1
    16    29    30   ar
    17    30    31   ar
    18    31    32   ar
    19    32    33   ar
    20    33    34   ar
    21     5     6    1
    22     6     7    1
    23     6     8    1
    24     8     9    1
    25     9    11    1
    26    11    12   ar
    27    12    13   ar
    28    13    14   ar
    29    14    15   ar
    30    15    16   ar
    31     9    10    1
    32    24    18   ar
    33     7     3    1
    34    16    11   ar
    35    34    29   ar
    36    10     6    1
    37    22    25    1
    38    27    28    1
@<TRIPOS>MOLECULE
*****
 34 38 0 0 0
SMALL
GASTEIGER

@<TRIPOS>ATOM
      1 O         136.6949  143.2782  155.9094 O.2     1  UNL1       -0.2745
      2 C         136.8550  141.9078  156.4979 C.2     1  UNL1        0.2301
      3 N         137.7617  141.6979  157.6743 N.am    1  UNL1       -0.2791
      4 C         138.0206  140.3923  158.3660 C.3     1  UNL1        0.0952
      5 C         138.9876  140.6443  159.4847 C.3     1  UNL1        0.0442
      6 C         139.3262  142.1055  159.4844 C.3     1  UNL1        0.0579
      7 C         138.5686  142.7567  158.3656 C.3     1  UNL1        0.0967
      8 C         139.8025  143.5160  159.6682 C.3     1  UNL1        0.0941
      9 N         140.6451  143.0800  160.8302 N.pl3   1  UNL1       -0.3073
     10 C         140.1687  141.6695  160.6464 C.3     1  UNL1        0.0941
     11 C         141.5776  143.7691  161.7818 C.ar    1  UNL1        0.0478
     12 C         141.0286  144.6548  162.8607 C.ar    1  UNL1        0.0145
     13 C         141.9612  145.3439  163.8122 C.ar    1  UNL1        0.0013
     14 C         143.4428  145.1473  163.6849 C.ar    1  UNL1        0.0001
     15 C         143.9918  144.2616  162.6060 C.ar    1  UNL1        0.0013
     16 C         143.0592  143.5725  161.6544 C.ar    1  UNL1        0.0145
     17 C         136.1084  140.7472  155.9099 C.3     1  UNL1        0.1116
     18 C         134.6256  140.6327  156.1055 C.ar    1  UNL1       -0.0129
     19 C         134.0779  139.7482  157.1862 C.ar    1  UNL1       -0.0007
     20 C         132.5951  139.6337  157.3818 C.ar    1  UNL1        0.0363
     21 C         131.6601  140.4036  156.4968 C.ar    1  UNL1        0.1337
     22 O         130.1773  140.2890  156.6924 O.3     1  UNL1       -0.5055
     23 C         132.2079  141.2880  155.4162 C.ar    1  UNL1        0.0363
     24 C         133.6907  141.4025  155.2206 C.ar    1  UNL1       -0.0007
     25 H         129.8351  139.7365  157.3674 H       1  UNL1        0.2922
     26 C         139.5220  139.6155  160.4366 C.3     1  UNL1        0.0888
     27 N         138.5754  138.7641  161.2298 N.pl3   1  UNL1       -0.3326
     28 H         137.9711  138.1388  160.7683 H       1  UNL1        0.1468
     29 C         138.5496  138.8655  162.7261 C.ar    1  UNL1        0.0446
     30 C         138.1347  140.1481  163.3839 C.ar    1  UNL1        0.0143
     31 C         138.1089  140.2496  164.8803 C.ar    1  UNL1        0.0013
     32 C         138.4979  139.0683  165.7189 C.ar    1  UNL1        0.0001
     33 C         138.9129  137.7856  165.0611 C.ar    1  UNL1        0.0013
     34 C         138.9387  137.6842  163.5647 C.ar    1  UNL1        0.0143
@<TRIPOS>BOND
     1     1     2    2
     2     2    17    1
     3    17    18    1
     4    18    19   ar
     5    19    20   ar
     6    20    21   ar
     7    21    22    1
     8    21    23   ar
     9    23    24   ar
    10     2     3   am
    11     3     4    1
    12     4     5    1
    13     5    26    1
    14    26    27    1
    15    27    29    1
    16    29    30   ar
    17    30    31   ar
    18    31    32   ar
    19    32    33   ar
    20    33    34   ar
    21     5     6    1
    22     6     7    1
    23     6     8    1
    24     8     9    1
    25     9    11    1
    26    11    12   ar
    27    12    13   ar
    28    13    14   ar
    29    14    15   ar
    30    15    16   ar
    31     9    10    1
    32    24    18   ar
    33     7     3    1
    34    16    11   ar
    35    34    29   ar
    36    10     6    1
    37    22    25    1
    38    27    28    1
@<TRIPOS>MOLECULE
*****
 34 38 0 0 0
SMALL
GASTEIGER

@<TRIPOS>ATOM
      1 O         138.1151  137.0864  166.1911 O.2     1  UNL1       -0.2745
      2 C         138.4069  138.5535  166.0796 C.2     1  UNL1        0.2301
      3 N         138.9477  139.1155  164.7984 N.am    1  UNL1       -0.2791
      4 C         139.2855  140.5539  164.5397 C.3     1  UNL1        0.0952
      5 C         139.7922  140.6651  163.1322 C.3     1  UNL1        0.0442
      6 C         139.7675  139.2955  162.5211 C.3     1  UNL1        0.0579
      7 C         139.2456  138.3378  163.5508 C.3     1  UNL1        0.0967
      8 C         139.8278  138.0306  161.7171 C.3     1  UNL1        0.0941
      9 N         140.3658  138.8000  160.5471 N.pl3   1  UNL1       -0.3073
     10 C         140.3055  140.0649  161.3512 C.3     1  UNL1        0.0941
     11 C         140.7888  138.4496  159.1513 C.ar    1  UNL1        0.0478
     12 C         142.2327  138.1746  158.8519 C.ar    1  UNL1        0.0145
     13 C         142.6557  137.8242  157.4561 C.ar    1  UNL1        0.0013
     14 C         141.6349  137.7488  156.3597 C.ar    1  UNL1        0.0001
     15 C         140.1910  138.0237  156.6591 C.ar    1  UNL1        0.0013
     16 C         139.7680  138.3741  158.0549 C.ar    1  UNL1        0.0145
     17 C         138.1578  139.4587  167.2496 C.3     1  UNL1        0.1116
     18 C         139.2838  139.8173  168.1735 C.ar    1  UNL1       -0.0129
     19 C         138.9963  140.1815  169.5999 C.ar    1  UNL1       -0.0007
     20 C         140.1223  140.5401  170.5238 C.ar    1  UNL1        0.0363
     21 C         141.5356  140.5345  170.0213 C.ar    1  UNL1        0.1337
     22 O         142.6616  140.8931  170.9453 O.3     1  UNL1       -0.5055
     23 C         141.8230  140.1702  168.5949 C.ar    1  UNL1        0.0363
     24 C         140.6970  139.8116  167.6710 C.ar    1  UNL1       -0.0007
     25 H         142.4821  141.1207  171.8363 H       1  UNL1        0.2922
     26 C         140.2442  141.9248  162.4549 C.3     1  UNL1        0.0888
     27 N         140.4603  143.1726  163.2588 N.pl3   1  UNL1       -0.3326
     28 H         139.7340  143.8309  163.3507 H       1  UNL1        0.1468
     29 C         141.7829  143.4174  163.9227 C.ar    1  UNL1        0.0446
     30 C         142.6056  144.6112  163.5380 C.ar    1  UNL1        0.0143
     31 C         143.9283  144.8561  164.2019 C.ar    1  UNL1        0.0013
     32 C         144.4282  143.9071  165.2504 C.ar    1  UNL1        0.0001
     33 C         143.6055  142.7132  165.6351 C.ar    1  UNL1        0.0013
     34 C         142.2828  142.4684  164.9712 C.ar    1  UNL1        0.0143
@<TRIPOS>BOND
     1     1     2    2
     2     2    17    1
     3    17    18    1
     4    18    19   ar
     5    19    20   ar
     6    20    21   ar
     7    21    22    1
     8    21    23   ar
     9    23    24   ar
    10     2     3   am
    11     3     4    1
    12     4     5    1
    13     5    26    1
    14    26    27    1
    15    27    29    1
    16    29    30   ar
    17    30    31   ar
    18    31    32   ar
    19    32    33   ar
    20    33    34   ar
    21     5     6    1
    22     6     7    1
    23     6     8    1
    24     8     9    1
    25     9    11    1
    26    11    12   ar
    27    12    13   ar
    28    13    14   ar
    29    14    15   ar
    30    15    16   ar
    31     9    10    1
    32    24    18   ar
    33     7     3    1
    34    16    11   ar
    35    34    29   ar
    36    10     6    1
    37    22    25    1
    38    27    28    1
