@<TRIPOS>MOLECULE
*****
 33 37 0 0 0
SMALL
GASTEIGER

@<TRIPOS>ATOM
      1 C         139.7284  139.6356  166.7622 C.ar    1  UNL1        0.0206
      2 C         138.6586  138.8137  166.1065 C.ar    1  UNL1        0.0013
      3 C         138.8912  138.2282  164.7452 C.ar    1  UNL1       -0.0045
      4 C         140.1937  138.4647  164.0396 C.ar    1  UNL1       -0.0247
      5 C         141.2634  139.2866  164.6954 C.ar    1  UNL1       -0.0246
      6 C         141.0308  139.8721  166.0566 C.ar    1  UNL1       -0.0029
      7 C         142.6234  139.6416  164.1713 C.3     1  UNL1        0.0433
      8 C         143.2494  139.2622  162.8619 C.3     1  UNL1        0.0768
      9 N         142.6701  138.4343  161.7535 N.3     1  UNL1       -0.2720
     10 C         141.3217  137.7811  161.6804 C.3     1  UNL1        0.0768
     11 C         140.2196  137.7947  162.6978 C.3     1  UNL1        0.0433
     12 C         139.9381  142.8405  170.9533 C.3     1  UNL1        0.0754
     13 C         139.5921  141.6941  170.0500 C.ar    1  UNL1        0.1548
     14 C         140.0944  141.4911  168.6512 C.ar    1  UNL1        0.0580
     15 C         139.4957  140.2210  168.1235 C.ar    1  UNL1        0.1227
     16 N         138.6235  139.6391  169.1962 N.ar    1  UNL1       -0.0774
     17 O         138.6831  140.5495  170.3867 O.2     1  UNL1       -0.3578
     18 C         143.5563  138.2328  160.5602 C.3     1  UNL1        0.0730
     19 C         143.1929  138.8515  159.2429 C.3     1  UNL1        0.0294
     20 C         143.6509  140.2418  158.9154 C.3     1  UNL1        0.0666
     21 S         142.6601  141.3671  158.8715 S.3     1  UNL1       -0.0756
     22 C         142.5307  142.2985  160.0402 C.ar    1  UNL1        0.1933
     23 N         143.4701  143.4158  160.3854 N.ar    1  UNL1       -0.1221
     24 N         142.9593  144.0840  161.6273 N.ar    1  UNL1       -0.1267
     25 C         141.7041  143.3796  162.0497 C.ar    1  UNL1        0.1828
     26 N         141.4392  142.2761  161.0688 N.ar    1  UNL1       -0.2873
     27 C         140.2854  141.3184  161.1094 C.3     1  UNL1        0.1340
     28 C         140.8616  143.7191  163.2434 C.ar    1  UNL1        0.0964
     29 C         140.9132  143.0414  164.5805 C.ar    1  UNL1        0.0218
     30 C         139.9031  143.6994  165.4732 C.ar    1  UNL1        0.0202
     31 C         139.2272  144.7839  164.6877 C.ar    1  UNL1        0.0760
     32 N         139.8196  144.7961  163.3096 N.ar    1  UNL1       -0.3216
     33 C         139.4370  145.7226  162.1937 C.3     1  UNL1        0.1306
@<TRIPOS>BOND
     1    12    13    1
     2    13    14   ar
     3    14    15   ar
     4    15     1    1
     5     1     2   ar
     6     2     3   ar
     7     3     4   ar
     8     4     5   ar
     9     5     6   ar
    10     5     7    1
    11     7     8    1
    12     8     9    1
    13     9    18    1
    14    18    19    1
    15    19    20    1
    16    20    21    1
    17    21    22    1
    18    22    23   ar
    19    23    24   ar
    20    24    25   ar
    21    25    28    1
    22    28    29   ar
    23    29    30   ar
    24    30    31   ar
    25    31    32   ar
    26    32    33    1
    27    25    26   ar
    28    26    27    1
    29     9    10    1
    30    10    11    1
    31    15    16   ar
    32    16    17   ar
    33    17    13   ar
    34     6     1   ar
    35    26    22   ar
    36    11     4    1
    37    32    28   ar
@<TRIPOS>MOLECULE
*****
 33 37 0 0 0
SMALL
GASTEIGER

@<TRIPOS>ATOM
      1 C         141.4842  141.6087  169.0579 C.ar    1  UNL1        0.0206
      2 C         140.1966  141.2381  169.7325 C.ar    1  UNL1        0.0013
      3 C         139.2022  140.3669  169.0236 C.ar    1  UNL1       -0.0045
      4 C         139.4954  139.8665  167.6403 C.ar    1  UNL1       -0.0247
      5 C         140.7829  140.2371  166.9658 C.ar    1  UNL1       -0.0246
      6 C         141.7773  141.1082  167.6746 C.ar    1  UNL1       -0.0029
      7 C         141.2691  139.8491  165.6009 C.3     1  UNL1        0.0433
      8 C         140.5879  138.9945  164.5733 C.3     1  UNL1        0.0768
      9 N         139.2523  138.3171  164.6570 N.3     1  UNL1       -0.2720
     10 C         138.2679  138.3267  165.7888 C.3     1  UNL1        0.0768
     11 C         138.3761  139.0163  167.1165 C.3     1  UNL1        0.0433
     12 C         146.0340  143.7164  170.7121 C.3     1  UNL1        0.0754
     13 C         144.5698  143.4487  170.5271 C.ar    1  UNL1        0.1548
     14 C         143.9711  142.3904  169.6486 C.ar    1  UNL1        0.0580
     15 C         142.4785  142.4798  169.7668 C.ar    1  UNL1        0.1227
     16 N         142.1547  143.5933  170.7183 N.ar    1  UNL1       -0.0774
     17 O         143.4472  144.1920  171.1882 O.2     1  UNL1       -0.3578
     18 C         138.8474  137.5252  163.4491 C.3     1  UNL1        0.0730
     19 C         139.2088  138.0123  162.0771 C.3     1  UNL1        0.0294
     20 C         138.1340  138.4721  161.1372 C.3     1  UNL1        0.0666
     21 S         137.6776  139.9008  161.1611 S.3     1  UNL1       -0.0756
     22 C         138.2475  140.8534  162.1700 C.ar    1  UNL1        0.1933
     23 N         137.6411  141.1979  163.4981 N.ar    1  UNL1       -0.1221
     24 N         138.5426  142.1861  164.1769 N.ar    1  UNL1       -0.1267
     25 C         139.7060  142.4524  163.2683 C.ar    1  UNL1        0.1828
     26 N         139.5237  141.6287  162.0280 N.ar    1  UNL1       -0.2873
     27 C         140.4542  141.5876  160.8522 C.3     1  UNL1        0.1340
     28 C         140.8509  143.3795  163.5505 C.ar    1  UNL1        0.0964
     29 C         142.1208  143.0208  164.2636 C.ar    1  UNL1        0.0218
     30 C         142.9817  144.2478  164.3230 C.ar    1  UNL1        0.0202
     31 C         142.2437  145.3649  163.6466 C.ar    1  UNL1        0.0760
     32 N         140.9268  144.8282  163.1691 N.ar    1  UNL1       -0.3216
     33 C         139.8713  145.6042  162.4386 C.3     1  UNL1        0.1306
@<TRIPOS>BOND
     1    12    13    1
     2    13    14   ar
     3    14    15   ar
     4    15     1    1
     5     1     2   ar
     6     2     3   ar
     7     3     4   ar
     8     4     5   ar
     9     5     6   ar
    10     5     7    1
    11     7     8    1
    12     8     9    1
    13     9    18    1
    14    18    19    1
    15    19    20    1
    16    20    21    1
    17    21    22    1
    18    22    23   ar
    19    23    24   ar
    20    24    25   ar
    21    25    28    1
    22    28    29   ar
    23    29    30   ar
    24    30    31   ar
    25    31    32   ar
    26    32    33    1
    27    25    26   ar
    28    26    27    1
    29     9    10    1
    30    10    11    1
    31    15    16   ar
    32    16    17   ar
    33    17    13   ar
    34     6     1   ar
    35    26    22   ar
    36    11     4    1
    37    32    28   ar
@<TRIPOS>MOLECULE
*****
 33 37 0 0 0
SMALL
GASTEIGER

@<TRIPOS>ATOM
      1 C         138.8188  139.3381  165.8560 C.ar    1  UNL1        0.0206
      2 C         139.0114  137.9469  165.3291 C.ar    1  UNL1        0.0013
      3 C         138.9823  137.6941  163.8508 C.ar    1  UNL1       -0.0045
      4 C         138.7606  138.8324  162.8994 C.ar    1  UNL1       -0.0247
      5 C         138.5680  140.2235  163.4263 C.ar    1  UNL1       -0.0246
      6 C         138.5971  140.4764  164.9046 C.ar    1  UNL1       -0.0029
      7 C         138.3347  141.4906  162.6581 C.3     1  UNL1        0.0433
      8 C         138.2364  141.6794  161.1733 C.3     1  UNL1        0.0768
      9 N         138.3472  140.6479  160.0900 N.3     1  UNL1       -0.2720
     10 C         138.5835  139.1727  160.2239 C.3     1  UNL1        0.0768
     11 C         138.7675  138.3647  161.4742 C.3     1  UNL1        0.0433
     12 C         140.2357  141.1253  170.6182 C.3     1  UNL1        0.0754
     13 C         139.4992  140.4123  169.5232 C.ar    1  UNL1        0.1548
     14 C         139.8465  140.4393  168.0641 C.ar    1  UNL1        0.0580
     15 C         138.8479  139.5908  167.3342 C.ar    1  UNL1        0.1227
     16 N         137.8834  139.0395  168.3421 N.ar    1  UNL1       -0.0774
     17 O         138.2859  139.5472  169.6949 O.2     1  UNL1       -0.3578
     18 C         138.2024  141.1591  158.6873 C.3     1  UNL1        0.0730
     19 C         138.2955  142.6308  158.4119 C.3     1  UNL1        0.0294
     20 C         139.3697  143.1581  157.5075 C.3     1  UNL1        0.0666
     21 S         140.2728  144.2593  157.9783 S.3     1  UNL1       -0.0756
     22 C         140.4099  144.5413  159.4451 C.ar    1  UNL1        0.1933
     23 N         139.8585  145.7337  160.1690 N.ar    1  UNL1       -0.1221
     24 N         140.2302  145.6098  161.6169 N.ar    1  UNL1       -0.1267
     25 C         141.0114  144.3408  161.7879 C.ar    1  UNL1        0.1828
     26 N         141.1225  143.6803  160.4456 N.ar    1  UNL1       -0.2873
     27 C         141.8230  142.3862  160.1550 C.3     1  UNL1        0.1340
     28 C         141.5815  143.8230  163.0751 C.ar    1  UNL1        0.0964
     29 C         140.7943  143.3649  164.2669 C.ar    1  UNL1        0.0218
     30 C         141.7651  142.9311  165.3249 C.ar    1  UNL1        0.0202
     31 C         143.1524  143.1212  164.7870 C.ar    1  UNL1        0.0760
     32 N         143.0389  143.6724  163.3965 N.ar    1  UNL1       -0.3216
     33 C         144.1822  144.0132  162.4872 C.3     1  UNL1        0.1306
@<TRIPOS>BOND
     1    12    13    1
     2    13    14   ar
     3    14    15   ar
     4    15     1    1
     5     1     2   ar
     6     2     3   ar
     7     3     4   ar
     8     4     5   ar
     9     5     6   ar
    10     5     7    1
    11     7     8    1
    12     8     9    1
    13     9    18    1
    14    18    19    1
    15    19    20    1
    16    20    21    1
    17    21    22    1
    18    22    23   ar
    19    23    24   ar
    20    24    25   ar
    21    25    28    1
    22    28    29   ar
    23    29    30   ar
    24    30    31   ar
    25    31    32   ar
    26    32    33    1
    27    25    26   ar
    28    26    27    1
    29     9    10    1
    30    10    11    1
    31    15    16   ar
    32    16    17   ar
    33    17    13   ar
    34     6     1   ar
    35    26    22   ar
    36    11     4    1
    37    32    28   ar
@<TRIPOS>MOLECULE
*****
 33 37 0 0 0
SMALL
GASTEIGER

@<TRIPOS>ATOM
      1 C         139.8633  141.0602  166.7189 C.ar    1  UNL1        0.0206
      2 C         138.7490  140.4088  165.9548 C.ar    1  UNL1        0.0013
      3 C         138.3007  140.9855  164.6445 C.ar    1  UNL1       -0.0045
      4 C         138.9669  142.2136  164.0985 C.ar    1  UNL1       -0.0247
      5 C         140.0812  142.8649  164.8627 C.ar    1  UNL1       -0.0246
      6 C         140.5294  142.2883  166.1729 C.ar    1  UNL1       -0.0029
      7 C         140.8744  144.0857  164.5013 C.3     1  UNL1        0.0433
      8 C         140.7490  144.9566  163.2864 C.3     1  UNL1        0.0768
      9 N         139.7997  144.8218  162.1330 N.3     1  UNL1       -0.2720
     10 C         138.7411  143.7828  161.9094 C.3     1  UNL1        0.0768
     11 C         138.3705  142.6220  162.7842 C.3     1  UNL1        0.0433
     12 C         142.9068  139.5223  170.7503 C.3     1  UNL1        0.0754
     13 C         141.7104  139.7766  169.8822 C.ar    1  UNL1        0.1548
     14 C         141.7227  140.4367  168.5352 C.ar    1  UNL1        0.0580
     15 C         140.3114  140.4836  168.0291 C.ar    1  UNL1        0.1227
     16 N         139.4269  139.8524  169.0632 N.ar    1  UNL1       -0.0774
     17 O         140.2915  139.4155  170.2084 O.2     1  UNL1       -0.3578
     18 C         139.9255  145.8637  161.0613 C.3     1  UNL1        0.0730
     19 C         140.1090  145.4503  159.6310 C.3     1  UNL1        0.0294
     20 C         141.4715  145.0761  159.1274 C.3     1  UNL1        0.0666
     21 S         141.9402  143.6542  159.2182 S.3     1  UNL1       -0.0756
     22 C         142.4916  143.1273  160.5098 C.ar    1  UNL1        0.1933
     23 N         143.4900  143.8192  161.3898 N.ar    1  UNL1       -0.1221
     24 N         143.7569  142.9355  162.5721 N.ar    1  UNL1       -0.1267
     25 C         142.9233  141.6974  162.4229 C.ar    1  UNL1        0.1828
     26 N         142.1413  141.8159  161.1483 N.ar    1  UNL1       -0.2873
     27 C         141.1782  140.8012  160.6073 C.3     1  UNL1        0.1340
     28 C         142.8795  140.5434  163.3801 C.ar    1  UNL1        0.0964
     29 C         141.6688  139.7263  163.7211 C.ar    1  UNL1        0.0218
     30 C         142.0797  138.6817  164.7162 C.ar    1  UNL1        0.0202
     31 C         143.5444  138.8533  164.9902 C.ar    1  UNL1        0.0760
     32 N         144.0387  140.0039  164.1644 N.ar    1  UNL1       -0.3216
     33 C         145.4454  140.5237  164.1292 C.3     1  UNL1        0.1306
@<TRIPOS>BOND
     1    12    13    1
     2    13    14   ar
     3    14    15   ar
     4    15     1    1
     5     1     2   ar
     6     2     3   ar
     7     3     4   ar
     8     4     5   ar
     9     5     6   ar
    10     5     7    1
    11     7     8    1
    12     8     9    1
    13     9    18    1
    14    18    19    1
    15    19    20    1
    16    20    21    1
    17    21    22    1
    18    22    23   ar
    19    23    24   ar
    20    24    25   ar
    21    25    28    1
    22    28    29   ar
    23    29    30   ar
    24    30    31   ar
    25    31    32   ar
    26    32    33    1
    27    25    26   ar
    28    26    27    1
    29     9    10    1
    30    10    11    1
    31    15    16   ar
    32    16    17   ar
    33    17    13   ar
    34     6     1   ar
    35    26    22   ar
    36    11     4    1
    37    32    28   ar
@<TRIPOS>MOLECULE
*****
 33 37 0 0 0
SMALL
GASTEIGER

@<TRIPOS>ATOM
      1 C         138.9932  139.1697  165.6722 C.ar    1  UNL1        0.0206
      2 C         138.7925  137.7620  165.1945 C.ar    1  UNL1        0.0013
      3 C         138.8994  137.4437  163.7325 C.ar    1  UNL1       -0.0045
      4 C         139.2070  138.5332  162.7483 C.ar    1  UNL1       -0.0247
      5 C         139.4076  139.9407  163.2261 C.ar    1  UNL1       -0.0246
      6 C         139.3007  140.2591  164.6880 C.ar    1  UNL1       -0.0029
      7 C         139.7198  141.1665  162.4198 C.3     1  UNL1        0.0433
      8 C         139.9084  141.2873  160.9365 C.3     1  UNL1        0.0768
      9 N         139.8315  140.2122  159.8934 N.3     1  UNL1       -0.2720
     10 C         139.5468  138.7508  160.0757 C.3     1  UNL1        0.0768
     11 C         139.2689  138.0035  161.3463 C.3     1  UNL1        0.0433
     12 C         139.8617  141.3015  170.4243 C.3     1  UNL1        0.0754
     13 C         139.2855  140.4678  169.3185 C.ar    1  UNL1        0.1548
     14 C         139.7357  140.4682  167.8876 C.ar    1  UNL1        0.0580
     15 C         138.8863  139.4879  167.1342 C.ar    1  UNL1        0.1227
     16 N         137.9111  138.8817  168.0994 N.ar    1  UNL1       -0.0774
     17 O         138.1579  139.4873  169.4493 O.2     1  UNL1       -0.3578
     18 C         140.0707  140.6574  158.4811 C.3     1  UNL1        0.0730
     19 C         141.4656  140.9495  158.0129 C.3     1  UNL1        0.0294
     20 C         142.5371  139.9091  158.1529 C.3     1  UNL1        0.0666
     21 S         143.6204  140.0813  159.1759 S.3     1  UNL1       -0.0756
     22 C         143.3427  139.7841  160.6197 C.ar    1  UNL1        0.1933
     23 N         142.9705  138.4472  161.1889 N.ar    1  UNL1       -0.1221
     24 N         142.7862  138.6085  162.6688 N.ar    1  UNL1       -0.1267
     25 C         143.0445  140.0451  163.0141 C.ar    1  UNL1        0.1828
     26 N         143.3885  140.7718  161.7477 N.ar    1  UNL1       -0.2873
     27 C         143.7199  142.2299  161.6301 C.3     1  UNL1        0.1340
     28 C         142.9717  140.6492  164.3852 C.ar    1  UNL1        0.0964
     29 C         142.5711  142.0582  164.7078 C.ar    1  UNL1        0.0218
     30 C         142.6385  142.2301  166.1964 C.ar    1  UNL1        0.0202
     31 C         143.0807  140.9272  166.7939 C.ar    1  UNL1        0.0760
     32 N         143.2867  139.9502  165.6745 N.ar    1  UNL1       -0.3216
     33 C         143.7298  138.5244  165.8191 C.3     1  UNL1        0.1306
@<TRIPOS>BOND
     1    12    13    1
     2    13    14   ar
     3    14    15   ar
     4    15     1    1
     5     1     2   ar
     6     2     3   ar
     7     3     4   ar
     8     4     5   ar
     9     5     6   ar
    10     5     7    1
    11     7     8    1
    12     8     9    1
    13     9    18    1
    14    18    19    1
    15    19    20    1
    16    20    21    1
    17    21    22    1
    18    22    23   ar
    19    23    24   ar
    20    24    25   ar
    21    25    28    1
    22    28    29   ar
    23    29    30   ar
    24    30    31   ar
    25    31    32   ar
    26    32    33    1
    27    25    26   ar
    28    26    27    1
    29     9    10    1
    30    10    11    1
    31    15    16   ar
    32    16    17   ar
    33    17    13   ar
    34     6     1   ar
    35    26    22   ar
    36    11     4    1
    37    32    28   ar
@<TRIPOS>MOLECULE
*****
 33 37 0 0 0
SMALL
GASTEIGER

@<TRIPOS>ATOM
      1 C         142.3914  142.1273  166.3688 C.ar    1  UNL1        0.0206
      2 C         143.7013  142.8583  166.3722 C.ar    1  UNL1        0.0013
      3 C         144.4487  143.0640  165.0880 C.ar    1  UNL1       -0.0045
      4 C         143.8862  142.5387  163.8004 C.ar    1  UNL1       -0.0247
      5 C         142.5765  141.8078  163.7971 C.ar    1  UNL1       -0.0246
      6 C         141.8290  141.6021  165.0812 C.ar    1  UNL1       -0.0029
      7 C         141.8432  141.2077  162.6342 C.3     1  UNL1        0.0433
      8 C         142.2389  141.1905  161.1873 C.3     1  UNL1        0.0768
      9 N         143.4652  141.7690  160.5462 N.3     1  UNL1       -0.2720
     10 C         144.5991  142.5076  161.1934 C.3     1  UNL1        0.0768
     11 C         144.7864  142.8502  162.6417 C.3     1  UNL1        0.0433
     12 C         138.8752  140.4081  169.9129 C.3     1  UNL1        0.0754
     13 C         140.0278  141.1315  169.2821 C.ar    1  UNL1        0.1548
     14 C         140.4504  141.0341  167.8460 C.ar    1  UNL1        0.0580
     15 C         141.6441  141.9217  167.6530 C.ar    1  UNL1        0.1227
     16 N         141.9592  142.5676  168.9696 N.ar    1  UNL1       -0.0774
     17 O         140.9604  142.0792  169.9764 O.2     1  UNL1       -0.3578
     18 C         143.5721  141.5845  159.0614 C.3     1  UNL1        0.0730
     19 C         143.8290  142.7671  158.1752 C.3     1  UNL1        0.0294
     20 C         142.6782  143.5136  157.5682 C.3     1  UNL1        0.0666
     21 S         141.9168  144.5131  158.3875 S.3     1  UNL1       -0.0756
     22 C         140.7612  144.0655  159.2326 C.ar    1  UNL1        0.1933
     23 N         139.5075  143.4091  158.7355 N.ar    1  UNL1       -0.1221
     24 N         138.6278  143.1337  159.9189 N.ar    1  UNL1       -0.1267
     25 C         139.3379  143.6199  161.1474 C.ar    1  UNL1        0.1828
     26 N         140.6565  144.1959  160.7233 N.ar    1  UNL1       -0.2873
     27 C         141.6889  144.7966  161.6306 C.3     1  UNL1        0.1340
     28 C         138.8204  143.5437  162.5532 C.ar    1  UNL1        0.0964
     29 C         138.8132  144.6627  163.5520 C.ar    1  UNL1        0.0218
     30 C         138.2076  144.1456  164.8232 C.ar    1  UNL1        0.0202
     31 C         137.8405  142.7070  164.6100 C.ar    1  UNL1        0.0760
     32 N         138.2192  142.3349  163.2070 N.ar    1  UNL1       -0.3216
     33 C         138.0299  140.9902  162.5699 C.3     1  UNL1        0.1306
@<TRIPOS>BOND
     1    12    13    1
     2    13    14   ar
     3    14    15   ar
     4    15     1    1
     5     1     2   ar
     6     2     3   ar
     7     3     4   ar
     8     4     5   ar
     9     5     6   ar
    10     5     7    1
    11     7     8    1
    12     8     9    1
    13     9    18    1
    14    18    19    1
    15    19    20    1
    16    20    21    1
    17    21    22    1
    18    22    23   ar
    19    23    24   ar
    20    24    25   ar
    21    25    28    1
    22    28    29   ar
    23    29    30   ar
    24    30    31   ar
    25    31    32   ar
    26    32    33    1
    27    25    26   ar
    28    26    27    1
    29     9    10    1
    30    10    11    1
    31    15    16   ar
    32    16    17   ar
    33    17    13   ar
    34     6     1   ar
    35    26    22   ar
    36    11     4    1
    37    32    28   ar
@<TRIPOS>MOLECULE
*****
 33 37 0 0 0
SMALL
GASTEIGER

@<TRIPOS>ATOM
      1 C         141.5200  141.6442  169.0401 C.ar    1  UNL1        0.0206
      2 C         140.3620  141.0606  169.7941 C.ar    1  UNL1        0.0013
      3 C         139.3547  140.2088  169.0800 C.ar    1  UNL1       -0.0045
      4 C         139.5055  139.9406  167.6119 C.ar    1  UNL1       -0.0247
      5 C         140.6634  140.5241  166.8580 C.ar    1  UNL1       -0.0246
      6 C         141.6707  141.3759  167.5720 C.ar    1  UNL1       -0.0029
      7 C         140.9989  140.3824  165.4028 C.3     1  UNL1        0.0433
      8 C         140.2590  139.6221  164.3422 C.3     1  UNL1        0.0768
      9 N         139.0012  138.8159  164.4750 N.3     1  UNL1       -0.2720
     10 C         138.1724  138.5706  165.7009 C.3     1  UNL1        0.0768
     11 C         138.3968  139.0712  167.0970 C.3     1  UNL1        0.0433
     12 C         146.1001  143.6955  170.6817 C.3     1  UNL1        0.0754
     13 C         144.6325  143.4388  170.5088 C.ar    1  UNL1        0.1548
     14 C         144.0178  142.4013  169.6167 C.ar    1  UNL1        0.0580
     15 C         142.5272  142.4959  169.7543 C.ar    1  UNL1        0.1227
     16 N         142.2205  143.5919  170.7314 N.ar    1  UNL1       -0.0774
     17 O         143.5216  144.1746  171.1977 O.2     1  UNL1       -0.3578
     18 C         138.5067  138.1692  163.2151 C.3     1  UNL1        0.0730
     19 C         139.4761  137.7972  162.1325 C.3     1  UNL1        0.0294
     20 C         139.1956  138.1813  160.7099 C.3     1  UNL1        0.0666
     21 S         140.2009  138.9826  159.9372 S.3     1  UNL1       -0.0756
     22 C         140.9183  140.1228  160.5971 C.ar    1  UNL1        0.1933
     23 N         140.5497  141.5733  160.4958 N.ar    1  UNL1       -0.1221
     24 N         141.5338  142.3596  161.3102 N.ar    1  UNL1       -0.1267
     25 C         142.5106  141.3951  161.9148 C.ar    1  UNL1        0.1828
     26 N         142.1302  140.0126  161.4741 N.ar    1  UNL1       -0.2873
     27 C         142.8376  138.7430  161.8452 C.3     1  UNL1        0.1340
     28 C         143.6652  141.7505  162.8040 C.ar    1  UNL1        0.0964
     29 C         145.0543  141.1926  162.7106 C.ar    1  UNL1        0.0218
     30 C         145.8810  141.8236  163.7916 C.ar    1  UNL1        0.0202
     31 C         145.0027  142.7716  164.5531 C.ar    1  UNL1        0.0760
     32 N         143.6332  142.7264  163.9427 N.ar    1  UNL1       -0.3216
     33 C         142.4410  143.5181  164.3922 C.3     1  UNL1        0.1306
@<TRIPOS>BOND
     1    12    13    1
     2    13    14   ar
     3    14    15   ar
     4    15     1    1
     5     1     2   ar
     6     2     3   ar
     7     3     4   ar
     8     4     5   ar
     9     5     6   ar
    10     5     7    1
    11     7     8    1
    12     8     9    1
    13     9    18    1
    14    18    19    1
    15    19    20    1
    16    20    21    1
    17    21    22    1
    18    22    23   ar
    19    23    24   ar
    20    24    25   ar
    21    25    28    1
    22    28    29   ar
    23    29    30   ar
    24    30    31   ar
    25    31    32   ar
    26    32    33    1
    27    25    26   ar
    28    26    27    1
    29     9    10    1
    30    10    11    1
    31    15    16   ar
    32    16    17   ar
    33    17    13   ar
    34     6     1   ar
    35    26    22   ar
    36    11     4    1
    37    32    28   ar
@<TRIPOS>MOLECULE
*****
 33 37 0 0 0
SMALL
GASTEIGER

@<TRIPOS>ATOM
      1 C         142.7006  141.2175  166.4084 C.ar    1  UNL1        0.0206
      2 C         142.8314  139.7237  166.4451 C.ar    1  UNL1        0.0013
      3 C         143.1122  138.9641  165.1825 C.ar    1  UNL1       -0.0045
      4 C         143.2622  139.6985  163.8831 C.ar    1  UNL1       -0.0247
      5 C         143.1314  141.1922  163.8464 C.ar    1  UNL1       -0.0246
      6 C         142.8506  141.9518  165.1090 C.ar    1  UNL1       -0.0029
      7 C         143.2443  142.1123  162.6671 C.3     1  UNL1        0.0433
      8 C         143.5159  141.7656  161.2331 C.3     1  UNL1        0.0768
      9 N         143.7416  140.4134  160.6245 N.3     1  UNL1       -0.2720
     10 C         143.7516  139.0738  161.2993 C.3     1  UNL1        0.0768
     11 C         143.5382  138.7556  162.7496 C.3     1  UNL1        0.0433
     12 C         140.1583  143.5724  170.3923 C.3     1  UNL1        0.0754
     13 C         141.2512  143.0595  169.5023 C.ar    1  UNL1        0.1548
     14 C         141.0630  142.2837  168.2322 C.ar    1  UNL1        0.0580
     15 C         142.4198  141.9770  167.6711 C.ar    1  UNL1        0.1227
     16 N         143.4466  142.5631  168.5942 N.ar    1  UNL1       -0.0774
     17 O         142.7244  143.2320  169.7259 O.2     1  UNL1       -0.3578
     18 C         143.9903  140.3988  159.1453 C.3     1  UNL1        0.0730
     19 C         143.0066  139.7378  158.2258 C.3     1  UNL1        0.0294
     20 C         141.8573  140.5233  157.6671 C.3     1  UNL1        0.0666
     21 S         140.5364  140.5283  158.3778 S.3     1  UNL1       -0.0756
     22 C         140.1832  141.6605  159.2961 C.ar    1  UNL1        0.1933
     23 N         139.9318  143.0817  158.8875 N.ar    1  UNL1       -0.1221
     24 N         139.6126  143.8698  160.1231 N.ar    1  UNL1       -0.1267
     25 C         139.6668  142.9357  161.2955 C.ar    1  UNL1        0.1828
     26 N         140.0194  141.5702  160.7844 N.ar    1  UNL1       -0.2873
     27 C         140.1801  140.3320  161.6157 C.3     1  UNL1        0.1340
     28 C         139.4128  143.3026  162.7276 C.ar    1  UNL1        0.0964
     29 C         140.2162  144.2696  163.5458 C.ar    1  UNL1        0.0218
     30 C         139.6108  144.3316  164.9169 C.ar    1  UNL1        0.0202
     31 C         138.4333  143.4029  164.9460 C.ar    1  UNL1        0.0760
     32 N         138.3109  142.7669  163.5930 N.ar    1  UNL1       -0.3216
     33 C         137.2694  141.7703  163.1782 C.3     1  UNL1        0.1306
@<TRIPOS>BOND
     1    12    13    1
     2    13    14   ar
     3    14    15   ar
     4    15     1    1
     5     1     2   ar
     6     2     3   ar
     7     3     4   ar
     8     4     5   ar
     9     5     6   ar
    10     5     7    1
    11     7     8    1
    12     8     9    1
    13     9    18    1
    14    18    19    1
    15    19    20    1
    16    20    21    1
    17    21    22    1
    18    22    23   ar
    19    23    24   ar
    20    24    25   ar
    21    25    28    1
    22    28    29   ar
    23    29    30   ar
    24    30    31   ar
    25    31    32   ar
    26    32    33    1
    27    25    26   ar
    28    26    27    1
    29     9    10    1
    30    10    11    1
    31    15    16   ar
    32    16    17   ar
    33    17    13   ar
    34     6     1   ar
    35    26    22   ar
    36    11     4    1
    37    32    28   ar
@<TRIPOS>MOLECULE
*****
 33 37 0 0 0
SMALL
GASTEIGER

@<TRIPOS>ATOM
      1 C         143.5922  140.5973  159.0027 C.ar    1  UNL1        0.0206
      2 C         143.9665  139.6691  160.1199 C.ar    1  UNL1        0.0013
      3 C         143.0444  139.4934  161.2900 C.ar    1  UNL1       -0.0045
      4 C         141.7479  140.2461  161.3426 C.ar    1  UNL1       -0.0247
      5 C         141.3737  141.1742  160.2254 C.ar    1  UNL1       -0.0246
      6 C         142.2957  141.3499  159.0554 C.ar    1  UNL1       -0.0029
      7 C         140.1388  142.0135  160.0807 C.3     1  UNL1        0.0433
      8 C         138.9733  142.1317  161.0176 C.3     1  UNL1        0.0768
      9 N         138.7548  141.4400  162.3304 N.3     1  UNL1       -0.2720
     10 C         139.6478  140.4591  163.0308 C.3     1  UNL1        0.0768
     11 C         140.9799  139.9278  162.5912 C.3     1  UNL1        0.0433
     12 C         147.0644  142.6801  155.6135 C.3     1  UNL1        0.0754
     13 C         146.1104  141.7302  156.2749 C.ar    1  UNL1        0.1548
     14 C         145.3427  141.9881  157.5376 C.ar    1  UNL1        0.0580
     15 C         144.5143  140.7729  157.8327 C.ar    1  UNL1        0.1227
     16 N         144.7700  139.7640  156.7525 N.ar    1  UNL1       -0.0774
     17 O         145.7564  140.3557  155.7898 O.2     1  UNL1       -0.3578
     18 C         137.4739  141.7731  163.0364 C.3     1  UNL1        0.0730
     19 C         137.4877  142.6930  164.2211 C.3     1  UNL1        0.0294
     20 C         137.9137  144.1218  164.0564 C.3     1  UNL1        0.0666
     21 S         139.0887  144.6477  164.8263 S.3     1  UNL1       -0.0756
     22 C         140.2090  143.7258  165.2073 C.ar    1  UNL1        0.1933
     23 N         140.3600  143.0177  166.5209 N.ar    1  UNL1       -0.1221
     24 N         141.6193  142.2045  166.4671 N.ar    1  UNL1       -0.1267
     25 C         142.2466  142.4101  165.1202 C.ar    1  UNL1        0.1828
     26 N         141.3750  143.3504  164.3416 N.ar    1  UNL1       -0.2873
     27 C         141.6254  143.8308  162.9428 C.3     1  UNL1        0.1340
     28 C         143.5216  141.7852  164.6368 C.ar    1  UNL1        0.0964
     29 C         144.6300  142.4904  163.9129 C.ar    1  UNL1        0.0218
     30 C         145.7056  141.4864  163.6210 C.ar    1  UNL1        0.0202
     31 C         145.2619  140.1607  164.1645 C.ar    1  UNL1        0.0760
     32 N         143.9121  140.3453  164.7923 N.ar    1  UNL1       -0.3216
     33 C         143.0961  139.2774  165.4586 C.3     1  UNL1        0.1306
@<TRIPOS>BOND
     1    12    13    1
     2    13    14   ar
     3    14    15   ar
     4    15     1    1
     5     1     2   ar
     6     2     3   ar
     7     3     4   ar
     8     4     5   ar
     9     5     6   ar
    10     5     7    1
    11     7     8    1
    12     8     9    1
    13     9    18    1
    14    18    19    1
    15    19    20    1
    16    20    21    1
    17    21    22    1
    18    22    23   ar
    19    23    24   ar
    20    24    25   ar
    21    25    28    1
    22    28    29   ar
    23    29    30   ar
    24    30    31   ar
    25    31    32   ar
    26    32    33    1
    27    25    26   ar
    28    26    27    1
    29     9    10    1
    30    10    11    1
    31    15    16   ar
    32    16    17   ar
    33    17    13   ar
    34     6     1   ar
    35    26    22   ar
    36    11     4    1
    37    32    28   ar
