@<TRIPOS>MOLECULE
*****
 19 20 0 0 0
SMALL
GASTEIGER

@<TRIPOS>ATOM
      1 N         139.8062  139.9768  167.1842 N.2     1  UNL1       -0.0567
      2 C         138.6713  139.3805  166.4056 C.2     1  UNL1        0.2408
      3 C         138.5489  139.6476  164.9346 C.ar    1  UNL1        0.2612
      4 N         138.4476  140.9978  164.2891 N.ar    1  UNL1       -0.2063
      5 C         138.3424  140.7961  162.8065 C.ar    1  UNL1        0.1189
      6 C         138.2182  141.7648  161.6680 C.ar    1  UNL1        0.0223
      7 C         138.1304  141.2587  160.2588 C.ar    1  UNL1        0.0018
      8 C         138.1668  139.7838  159.9879 C.ar    1  UNL1        0.0032
      9 C         138.2909  138.8150  161.1264 C.ar    1  UNL1        0.0391
     10 C         138.3788  139.3212  162.5356 C.ar    1  UNL1        0.1648
     11 O         138.5064  138.6114  163.8509 O.2     1  UNL1       -0.4328
     12 C         137.6588  138.5171  167.0978 C.1     1  UNL1        0.1280
     13 N         136.6463  137.6536  167.7901 N.1     1  UNL1       -0.1890
     14 O         139.9286  139.7097  168.6552 O.3     1  UNL1       -0.2975
     15 C         139.6616  143.0026  170.8542 C.3     1  UNL1        0.1184
     16 N         140.1697  141.9965  169.8644 N.am    1  UNL1       -0.2408
     17 C         141.4272  142.2712  169.0941 C.3     1  UNL1        0.1184
     18 C         139.4204  140.7158  169.6450 C.2     1  UNL1        0.4299
     19 O         138.1630  140.4410  170.4152 O.2     1  UNL1       -0.2238
@<TRIPOS>BOND
     1    15    16    1
     2    16    17    1
     3    16    18   am
     4    18    19    2
     5    18    14    1
     6    14     1    1
     7     1     2    2
     8     2    12    1
     9    12    13    3
    10     2     3    1
    11     3     4   ar
    12     4     5   ar
    13     5     6   ar
    14     6     7   ar
    15     7     8   ar
    16     8     9   ar
    17     9    10   ar
    18    10    11   ar
    19    11     3   ar
    20    10     5   ar
@<TRIPOS>MOLECULE
*****
 19 20 0 0 0
SMALL
GASTEIGER

@<TRIPOS>ATOM
      1 N         139.0562  140.0666  164.8716 N.2     1  UNL1       -0.0567
      2 C         138.9813  139.7285  166.3310 C.2     1  UNL1        0.2408
      3 C         139.9109  140.3921  167.3033 C.ar    1  UNL1        0.2612
      4 N         139.6497  140.6106  168.7641 N.ar    1  UNL1       -0.2063
      5 C         140.8422  141.3074  169.3492 C.ar    1  UNL1        0.1189
      6 C         141.1481  141.7761  170.7408 C.ar    1  UNL1        0.0223
      7 C         142.4523  142.4569  171.0332 C.ar    1  UNL1        0.0018
      8 C         143.4506  142.6691  169.9340 C.ar    1  UNL1        0.0032
      9 C         143.1447  142.2004  168.5423 C.ar    1  UNL1        0.0391
     10 C         141.8405  141.5195  168.2499 C.ar    1  UNL1        0.1648
     11 O         141.2649  140.9539  166.9855 O.2     1  UNL1       -0.4328
     12 C         137.9768  138.7266  166.8181 C.1     1  UNL1        0.1280
     13 N         136.9723  137.7248  167.3052 N.1     1  UNL1       -0.1890
     14 O         138.1266  139.4029  163.8992 O.3     1  UNL1       -0.2975
     15 C         137.8853  140.0978  159.9994 C.3     1  UNL1        0.1184
     16 N         138.2094  139.4296  161.3026 N.am    1  UNL1       -0.2408
     17 C         138.9405  138.1198  161.3125 C.3     1  UNL1        0.1184
     18 C         137.8025  140.0711  162.5960 C.2     1  UNL1        0.4299
     19 O         137.0714  141.3808  162.5861 O.2     1  UNL1       -0.2238
@<TRIPOS>BOND
     1    15    16    1
     2    16    17    1
     3    16    18   am
     4    18    19    2
     5    18    14    1
     6    14     1    1
     7     1     2    2
     8     2    12    1
     9    12    13    3
    10     2     3    1
    11     3     4   ar
    12     4     5   ar
    13     5     6   ar
    14     6     7   ar
    15     7     8   ar
    16     8     9   ar
    17     9    10   ar
    18    10    11   ar
    19    11     3   ar
    20    10     5   ar
@<TRIPOS>MOLECULE
*****
 19 20 0 0 0
SMALL
GASTEIGER

@<TRIPOS>ATOM
      1 N         138.9411  138.5211  164.4518 N.2     1  UNL1       -0.0567
      2 C         138.6822  139.9320  164.8903 C.2     1  UNL1        0.2408
      3 C         139.1945  140.4113  166.2162 C.ar    1  UNL1        0.2612
      4 N         139.1214  139.6611  167.5131 N.ar    1  UNL1       -0.2063
      5 C         139.7515  140.5110  168.5764 C.ar    1  UNL1        0.1189
      6 C         139.9639  140.2884  170.0444 C.ar    1  UNL1        0.0223
      7 C         140.6388  141.3411  170.8728 C.ar    1  UNL1        0.0018
      8 C         141.1014  142.6165  170.2330 C.ar    1  UNL1        0.0032
      9 C         140.8890  142.8392  168.7649 C.ar    1  UNL1        0.0391
     10 C         140.2141  141.7865  167.9366 C.ar    1  UNL1        0.1648
     11 O         139.8698  141.7248  166.4780 O.2     1  UNL1       -0.4328
     12 C         137.9110  140.8636  164.0030 C.1     1  UNL1        0.1280
     13 N         137.1398  141.7953  163.1157 N.1     1  UNL1       -0.1890
     14 O         138.4288  138.0419  163.1259 O.3     1  UNL1       -0.2975
     15 C         139.7775  138.7526  159.4618 C.3     1  UNL1        0.1184
     16 N         138.8796  138.7360  160.6632 N.am    1  UNL1       -0.2408
     17 C         137.5344  139.3970  160.6033 C.3     1  UNL1        0.1184
     18 C         139.3268  138.0584  161.9245 C.2     1  UNL1        0.4299
     19 O         140.6719  137.3974  161.9844 O.2     1  UNL1       -0.2238
@<TRIPOS>BOND
     1    15    16    1
     2    16    17    1
     3    16    18   am
     4    18    19    2
     5    18    14    1
     6    14     1    1
     7     1     2    2
     8     2    12    1
     9    12    13    3
    10     2     3    1
    11     3     4   ar
    12     4     5   ar
    13     5     6   ar
    14     6     7   ar
    15     7     8   ar
    16     8     9   ar
    17     9    10   ar
    18    10    11   ar
    19    11     3   ar
    20    10     5   ar
@<TRIPOS>MOLECULE
*****
 19 20 0 0 0
SMALL
GASTEIGER

@<TRIPOS>ATOM
      1 N         139.5375  140.3400  167.0436 N.2     1  UNL1       -0.0567
      2 C         138.6235  139.4214  166.2882 C.2     1  UNL1        0.2408
      3 C         138.6646  139.3886  164.7891 C.ar    1  UNL1        0.2612
      4 N         137.8923  140.2838  163.8661 N.ar    1  UNL1       -0.2063
      5 C         138.2356  139.9033  162.4563 C.ar    1  UNL1        0.1189
      6 C         137.7790  140.4401  161.1323 C.ar    1  UNL1        0.0223
      7 C         138.3068  139.8464  159.8599 C.ar    1  UNL1        0.0018
      8 C         139.2913  138.7159  159.9117 C.ar    1  UNL1        0.0032
      9 C         139.7480  138.1791  161.2358 C.ar    1  UNL1        0.0391
     10 C         139.2201  138.7728  162.5081 C.ar    1  UNL1        0.1648
     11 O         139.4853  138.4547  163.9498 O.2     1  UNL1       -0.4328
     12 C         137.6684  138.5356  167.0318 C.1     1  UNL1        0.1280
     13 N         136.7133  137.6498  167.7756 N.1     1  UNL1       -0.1890
     14 O         139.4964  140.3729  168.5426 O.3     1  UNL1       -0.2975
     15 C         142.5014  142.1908  170.3907 C.3     1  UNL1        0.1184
     16 N         141.2383  141.9780  169.6103 N.am    1  UNL1       -0.2408
     17 C         140.4536  143.1574  169.1171 C.3     1  UNL1        0.1184
     18 C         140.7597  140.5857  169.3231 C.2     1  UNL1        0.4299
     19 O         141.5443  139.4062  169.8162 O.2     1  UNL1       -0.2238
@<TRIPOS>BOND
     1    15    16    1
     2    16    17    1
     3    16    18   am
     4    18    19    2
     5    18    14    1
     6    14     1    1
     7     1     2    2
     8     2    12    1
     9    12    13    3
    10     2     3    1
    11     3     4   ar
    12     4     5   ar
    13     5     6   ar
    14     6     7   ar
    15     7     8   ar
    16     8     9   ar
    17     9    10   ar
    18    10    11   ar
    19    11     3   ar
    20    10     5   ar
@<TRIPOS>MOLECULE
*****
 19 20 0 0 0
SMALL
GASTEIGER

@<TRIPOS>ATOM
      1 N         138.3833  141.8217  164.6596 N.2     1  UNL1       -0.0567
      2 C         139.1155  140.5950  165.1167 C.2     1  UNL1        0.2408
      3 C         140.0184  140.6625  166.3126 C.ar    1  UNL1        0.2612
      4 N         141.1553  141.6218  166.5061 N.ar    1  UNL1       -0.2063
      5 C         141.7825  141.3347  167.8380 C.ar    1  UNL1        0.1189
      6 C         142.9391  141.9615  168.5588 C.ar    1  UNL1        0.0223
      7 C         143.3464  141.4516  169.9094 C.ar    1  UNL1        0.0018
      8 C         142.5972  140.3149  170.5392 C.ar    1  UNL1        0.0032
      9 C         141.4406  139.6882  169.8184 C.ar    1  UNL1        0.0391
     10 C         141.0333  140.1981  168.4679 C.ar    1  UNL1        0.1648
     11 O         139.9431  139.7826  167.5251 O.2     1  UNL1       -0.4328
     12 C         138.9449  139.3009  164.3779 C.1     1  UNL1        0.1280
     13 N         138.7741  138.0066  163.6390 N.1     1  UNL1       -0.1890
     14 O         137.4804  141.7543  163.4637 O.3     1  UNL1       -0.2975
     15 C         138.4735  142.4795  159.6904 C.3     1  UNL1        0.1184
     16 N         138.1143  141.7386  160.9442 N.am    1  UNL1       -0.2408
     17 C         138.0296  140.2410  160.9323 C.3     1  UNL1        0.1184
     18 C         137.8397  142.4952  162.2099 C.2     1  UNL1        0.4299
     19 O         137.9243  143.9928  162.2219 O.2     1  UNL1       -0.2238
@<TRIPOS>BOND
     1    15    16    1
     2    16    17    1
     3    16    18   am
     4    18    19    2
     5    18    14    1
     6    14     1    1
     7     1     2    2
     8     2    12    1
     9    12    13    3
    10     2     3    1
    11     3     4   ar
    12     4     5   ar
    13     5     6   ar
    14     6     7   ar
    15     7     8   ar
    16     8     9   ar
    17     9    10   ar
    18    10    11   ar
    19    11     3   ar
    20    10     5   ar
@<TRIPOS>MOLECULE
*****
 19 20 0 0 0
SMALL
GASTEIGER

@<TRIPOS>ATOM
      1 N         143.8962  139.4361  164.3855 N.2     1  UNL1       -0.0567
      2 C         142.5499  138.8975  164.7693 C.2     1  UNL1        0.2408
      3 C         141.9597  139.2363  166.1060 C.ar    1  UNL1        0.2612
      4 N         142.7119  139.3488  167.3989 N.ar    1  UNL1       -0.2063
      5 C         141.7309  139.7041  168.4766 C.ar    1  UNL1        0.1189
      6 C         141.8991  139.9439  169.9477 C.ar    1  UNL1        0.0223
      7 C         140.7088  140.2909  170.7919 C.ar    1  UNL1        0.0018
      8 C         139.3503  140.3981  170.1650 C.ar    1  UNL1        0.0032
      9 C         139.1821  140.1583  168.6939 C.ar    1  UNL1        0.0391
     10 C         140.3724  139.8113  167.8497 C.ar    1  UNL1        0.1648
     11 O         140.5138  139.5222  166.3846 O.2     1  UNL1       -0.4328
     12 C         141.7937  138.0202  163.8162 C.1     1  UNL1        0.1280
     13 N         141.0374  137.1427  162.8631 N.1     1  UNL1       -0.1890
     14 O         144.4863  139.0973  163.0487 O.3     1  UNL1       -0.2975
     15 C         144.6452  142.3282  160.7496 C.3     1  UNL1        0.1184
     16 N         144.8501  141.4066  161.9151 N.am    1  UNL1       -0.2408
     17 C         145.6238  141.8726  163.1128 C.3     1  UNL1        0.1184
     18 C         144.2813  140.0190  161.8831 C.2     1  UNL1        0.4299
     19 O         143.5077  139.5530  160.6855 O.2     1  UNL1       -0.2238
@<TRIPOS>BOND
     1    15    16    1
     2    16    17    1
     3    16    18   am
     4    18    19    2
     5    18    14    1
     6    14     1    1
     7     1     2    2
     8     2    12    1
     9    12    13    3
    10     2     3    1
    11     3     4   ar
    12     4     5   ar
    13     5     6   ar
    14     6     7   ar
    15     7     8   ar
    16     8     9   ar
    17     9    10   ar
    18    10    11   ar
    19    11     3   ar
    20    10     5   ar
@<TRIPOS>MOLECULE
*****
 19 20 0 0 0
SMALL
GASTEIGER

@<TRIPOS>ATOM
      1 N         143.8564  139.1844  164.1786 N.2     1  UNL1       -0.0567
      2 C         142.5047  138.7565  164.6681 C.2     1  UNL1        0.2408
      3 C         142.0318  139.1768  166.0281 C.ar    1  UNL1        0.2612
      4 N         140.6288  139.5607  166.3941 N.ar    1  UNL1       -0.2063
      5 C         140.6088  139.9082  167.8531 C.ar    1  UNL1        0.1189
      6 C         139.5039  140.3568  168.7630 C.ar    1  UNL1        0.0223
      7 C         139.7898  140.6362  170.2087 C.ar    1  UNL1        0.0018
      8 C         141.1806  140.4671  170.7445 C.ar    1  UNL1        0.0032
      9 C         142.2855  140.0185  169.8347 C.ar    1  UNL1        0.0391
     10 C         141.9996  139.7391  168.3889 C.ar    1  UNL1        0.1648
     11 O         142.8791  139.2871  167.2610 O.2     1  UNL1       -0.4328
     12 C         141.6258  137.9081  163.7975 C.1     1  UNL1        0.1280
     13 N         140.7469  137.0598  162.9269 N.1     1  UNL1       -0.1890
     14 O         144.3293  138.7641  162.8185 O.3     1  UNL1       -0.2975
     15 C         143.4837  140.1838  159.2103 C.3     1  UNL1        0.1184
     16 N         143.6018  139.2401  160.3702 N.am    1  UNL1       -0.2408
     17 C         143.1108  137.8286  160.2417 C.3     1  UNL1        0.1184
     18 C         144.2111  139.7079  161.6586 C.2     1  UNL1        0.4299
     19 O         144.7022  141.1194  161.7871 O.2     1  UNL1       -0.2238
@<TRIPOS>BOND
     1    15    16    1
     2    16    17    1
     3    16    18   am
     4    18    19    2
     5    18    14    1
     6    14     1    1
     7     1     2    2
     8     2    12    1
     9    12    13    3
    10     2     3    1
    11     3     4   ar
    12     4     5   ar
    13     5     6   ar
    14     6     7   ar
    15     7     8   ar
    16     8     9   ar
    17     9    10   ar
    18    10    11   ar
    19    11     3   ar
    20    10     5   ar
@<TRIPOS>MOLECULE
*****
 19 20 0 0 0
SMALL
GASTEIGER

@<TRIPOS>ATOM
      1 N         138.2393  140.7196  164.4474 N.2     1  UNL1       -0.0567
      2 C         138.9039  141.8756  165.1343 C.2     1  UNL1        0.2408
      3 C         139.8676  141.6278  166.2568 C.ar    1  UNL1        0.2612
      4 N         139.8501  140.4543  167.1909 N.ar    1  UNL1       -0.2063
      5 C         140.9896  140.6113  168.1537 C.ar    1  UNL1        0.1189
      6 C         141.4633  139.7614  169.2953 C.ar    1  UNL1        0.0223
      7 C         142.6587  140.1821  170.0979 C.ar    1  UNL1        0.0018
      8 C         143.3804  141.4526  169.7587 C.ar    1  UNL1        0.0032
      9 C         142.9067  142.3024  168.6171 C.ar    1  UNL1        0.0391
     10 C         141.7113  141.8817  167.8146 C.ar    1  UNL1        0.1648
     11 O         141.0179  142.5100  166.6422 O.2     1  UNL1       -0.4328
     12 C         138.6049  143.2794  164.6987 C.1     1  UNL1        0.1280
     13 N         138.3059  144.6834  164.2631 N.1     1  UNL1       -0.1890
     14 O         137.2757  140.9674  163.3249 O.3     1  UNL1       -0.2975
     15 C         138.5076  139.9042  159.7052 C.3     1  UNL1        0.1184
     16 N         138.0074  139.8112  161.1163 N.am    1  UNL1       -0.2408
     17 C         137.7387  138.4691  161.7299 C.3     1  UNL1        0.1184
     18 C         137.7759  141.0604  161.9138 C.2     1  UNL1        0.4299
     19 O         138.0445  142.4025  161.3002 O.2     1  UNL1       -0.2238
@<TRIPOS>BOND
     1    15    16    1
     2    16    17    1
     3    16    18   am
     4    18    19    2
     5    18    14    1
     6    14     1    1
     7     1     2    2
     8     2    12    1
     9    12    13    3
    10     2     3    1
    11     3     4   ar
    12     4     5   ar
    13     5     6   ar
    14     6     7   ar
    15     7     8   ar
    16     8     9   ar
    17     9    10   ar
    18    10    11   ar
    19    11     3   ar
    20    10     5   ar
@<TRIPOS>MOLECULE
*****
 19 20 0 0 0
SMALL
GASTEIGER

@<TRIPOS>ATOM
      1 N         137.3825  140.2590  158.4887 N.2     1  UNL1       -0.0567
      2 C         138.1072  140.9949  159.5764 C.2     1  UNL1        0.2408
      3 C         138.2346  140.3829  160.9400 C.ar    1  UNL1        0.2612
      4 N         138.6843  138.9837  161.2398 N.ar    1  UNL1       -0.2063
      5 C         138.6622  138.7986  162.7282 C.ar    1  UNL1        0.1189
      6 C         139.0042  137.6261  163.5990 C.ar    1  UNL1        0.0223
      7 C         138.8828  137.7386  165.0899 C.ar    1  UNL1        0.0018
      8 C         138.4194  139.0234  165.7099 C.ar    1  UNL1        0.0032
      9 C         138.0775  140.1959  164.8390 C.ar    1  UNL1        0.0391
     10 C         138.1989  140.0835  163.3482 C.ar    1  UNL1        0.1648
     11 O         137.9346  141.0626  162.2430 O.2     1  UNL1       -0.4328
     12 C         138.7046  142.3429  159.3006 C.1     1  UNL1        0.1280
     13 N         139.3020  143.6909  159.0247 N.1     1  UNL1       -0.1890
     14 O         137.2552  140.8710  157.1252 O.3     1  UNL1       -0.2975
     15 C         134.5082  141.3629  154.3034 C.3     1  UNL1        0.1184
     16 N         135.8096  141.4466  155.0445 N.am    1  UNL1       -0.2408
     17 C         136.9671  142.1899  154.4461 C.3     1  UNL1        0.1184
     18 C         135.9537  140.7872  156.3841 C.2     1  UNL1        0.4299
     19 O         134.7963  140.0440  156.9825 O.2     1  UNL1       -0.2238
@<TRIPOS>BOND
     1    15    16    1
     2    16    17    1
     3    16    18   am
     4    18    19    2
     5    18    14    1
     6    14     1    1
     7     1     2    2
     8     2    12    1
     9    12    13    3
    10     2     3    1
    11     3     4   ar
    12     4     5   ar
    13     5     6   ar
    14     6     7   ar
    15     7     8   ar
    16     8     9   ar
    17     9    10   ar
    18    10    11   ar
    19    11     3   ar
    20    10     5   ar
