@<TRIPOS>MOLECULE
*****
 33 35 0 0 0
SMALL
GASTEIGER

@<TRIPOS>ATOM
      1 C         138.4714  138.9305  162.8147 C.ar    1  UNL1        0.0859
      2 C         138.8820  137.6729  163.5216 C.ar    1  UNL1        0.1060
      3 N         138.8683  137.6164  165.0205 N.ar    1  UNL1       -0.2288
      4 C         138.4442  138.8176  165.8124 C.ar    1  UNL1        0.1345
      5 C         138.0337  140.0752  165.1055 C.ar    1  UNL1        0.0492
      6 C         138.0473  140.1317  163.6066 C.ar    1  UNL1        0.0570
      7 C         139.6649  138.4859  159.0559 C.3     1  UNL1        0.1109
      8 N         139.6512  138.4294  160.5548 N.am    1  UNL1       -0.2991
      9 C         138.4851  138.9870  161.3158 C.2     1  UNL1        0.2486
     10 O         137.3325  139.6010  160.5779 O.2     1  UNL1       -0.2700
     11 H         140.4077  138.0264  161.0391 H       1  UNL1        0.1498
     12 N         138.4306  138.7611  167.3113 N.pl3   1  UNL1       -0.2833
     13 H         137.9450  138.0394  167.7723 H       1  UNL1        0.1550
     14 C         139.1568  139.8042  168.1078 C.ar    1  UNL1        0.1334
     15 C         140.2622  140.5965  167.4748 C.ar    1  UNL1        0.0376
     16 C         140.9884  141.6396  168.2713 C.ar    1  UNL1        0.0414
     17 C         140.6093  141.8906  169.7007 C.ar    1  UNL1        0.1579
     18 C         139.5039  141.0985  170.3336 C.ar    1  UNL1        0.1370
     19 N         138.7776  140.0553  169.5372 N.ar    1  UNL1       -0.2259
     20 O         141.3355  142.9338  170.4971 O.3     1  UNL1       -0.4699
     21 C         142.8294  143.0382  170.4108 C.3     1  UNL1        0.2525
     22 N         137.6367  141.3894  162.8997 N.pl3   1  UNL1       -0.3113
     23 H         136.9315  141.3605  162.2134 H       1  UNL1        0.1523
     24 C         138.3007  142.6910  163.2385 C.ar    1  UNL1        0.0656
     25 C         138.0223  143.3548  164.5545 C.ar    1  UNL1        0.0159
     26 C         138.6864  144.6565  164.8932 C.ar    1  UNL1        0.0014
     27 C         139.6287  145.2944  163.9160 C.ar    1  UNL1        0.0014
     28 C         139.9070  144.6306  162.6000 C.ar    1  UNL1        0.0196
     29 C         139.2431  143.3290  162.2612 C.ar    1  UNL1        0.1190
     30 S         139.5214  142.6652  160.9452 S.O2    1  UNL1        0.0116
     31 C         139.7998  142.0014  159.6291 C.3     1  UNL1        0.1816
     32 O         140.8772  142.2550  161.4388 O.2     1  UNL1       -0.1685
     33 O         138.1657  143.0753  160.4515 O.2     1  UNL1       -0.1685
@<TRIPOS>BOND
     1     7     8    1
     2     8     9   am
     3     9    10    2
     4     9     1    1
     5     1     2   ar
     6     2     3   ar
     7     3     4   ar
     8     4    12    1
     9    12    14    1
    10    14    15   ar
    11    15    16   ar
    12    16    17   ar
    13    17    20    1
    14    20    21    1
    15    17    18   ar
    16    18    19   ar
    17     4     5   ar
    18     5     6   ar
    19     6    22    1
    20    22    24    1
    21    24    25   ar
    22    25    26   ar
    23    26    27   ar
    24    27    28   ar
    25    28    29   ar
    26    29    30    1
    27    30    31    1
    28    30    32    2
    29    30    33    2
    30     6     1   ar
    31    29    24   ar
    32    19    14   ar
    33     8    11    1
    34    12    13    1
    35    22    23    1
@<TRIPOS>MOLECULE
*****
 33 35 0 0 0
SMALL
GASTEIGER

@<TRIPOS>ATOM
      1 C         140.2985  141.5040  168.3320 C.ar    1  UNL1        0.0859
      2 C         139.4633  140.3930  168.8957 C.ar    1  UNL1        0.1060
      3 N         138.8471  139.3784  167.9786 N.ar    1  UNL1       -0.2288
      4 C         139.0662  139.4750  166.4978 C.ar    1  UNL1        0.1345
      5 C         139.9014  140.5861  165.9342 C.ar    1  UNL1        0.0492
      6 C         140.5176  141.6006  166.8513 C.ar    1  UNL1        0.0570
      7 C         142.9146  143.3162  170.7032 C.3     1  UNL1        0.1109
      8 N         142.2984  142.3017  169.7861 N.am    1  UNL1       -0.2991
      9 C         140.9147  142.5186  169.2491 C.2     1  UNL1        0.2486
     10 O         140.1473  143.7500  169.6291 O.2     1  UNL1       -0.2700
     11 H         142.8021  141.4934  169.5367 H       1  UNL1        0.1498
     12 N         138.4500  138.4604  165.5808 N.pl3   1  UNL1       -0.2833
     13 H         137.7991  137.8106  165.9319 H       1  UNL1        0.1550
     14 C         138.8255  138.4360  164.1288 C.ar    1  UNL1        0.1334
     15 C         140.0327  137.6676  163.6791 C.ar    1  UNL1        0.0376
     16 C         140.4082  137.6432  162.2271 C.ar    1  UNL1        0.0414
     17 C         139.5765  138.3872  161.2247 C.ar    1  UNL1        0.1579
     18 C         138.3693  139.1556  161.6743 C.ar    1  UNL1        0.1370
     19 N         137.9938  139.1800  163.1264 N.ar    1  UNL1       -0.2259
     20 O         139.9520  138.3627  159.7726 O.3     1  UNL1       -0.4699
     21 C         139.3439  139.3527  158.8239 C.3     1  UNL1        0.2525
     22 N         141.3529  142.7117  166.2875 N.pl3   1  UNL1       -0.3113
     23 H         142.2498  142.8877  166.6535 H       1  UNL1        0.1523
     24 C         140.8218  143.5547  165.1662 C.ar    1  UNL1        0.0656
     25 C         139.4046  144.0448  165.2027 C.ar    1  UNL1        0.0159
     26 C         138.8734  144.8877  164.0813 C.ar    1  UNL1        0.0014
     27 C         139.7595  145.2405  162.9236 C.ar    1  UNL1        0.0014
     28 C         141.1767  144.7504  162.8872 C.ar    1  UNL1        0.0196
     29 C         141.7078  143.9075  164.0084 C.ar    1  UNL1        0.1190
     30 S         143.1250  143.4174  163.9720 S.O2    1  UNL1        0.0116
     31 C         144.5423  142.9273  163.9355 C.3     1  UNL1        0.1816
     32 O         143.6137  144.8106  164.2371 O.2     1  UNL1       -0.1685
     33 O         142.6364  142.0242  163.7069 O.2     1  UNL1       -0.1685
@<TRIPOS>BOND
     1     7     8    1
     2     8     9   am
     3     9    10    2
     4     9     1    1
     5     1     2   ar
     6     2     3   ar
     7     3     4   ar
     8     4    12    1
     9    12    14    1
    10    14    15   ar
    11    15    16   ar
    12    16    17   ar
    13    17    20    1
    14    20    21    1
    15    17    18   ar
    16    18    19   ar
    17     4     5   ar
    18     5     6   ar
    19     6    22    1
    20    22    24    1
    21    24    25   ar
    22    25    26   ar
    23    26    27   ar
    24    27    28   ar
    25    28    29   ar
    26    29    30    1
    27    30    31    1
    28    30    32    2
    29    30    33    2
    30     6     1   ar
    31    29    24   ar
    32    19    14   ar
    33     8    11    1
    34    12    13    1
    35    22    23    1
@<TRIPOS>MOLECULE
*****
 33 35 0 0 0
SMALL
GASTEIGER

@<TRIPOS>ATOM
      1 C         138.5881  140.3251  159.8731 C.ar    1  UNL1        0.0859
      2 C         139.1168  138.9286  159.7319 C.ar    1  UNL1        0.1060
      3 N         139.5656  138.1702  160.9457 N.ar    1  UNL1       -0.2288
      4 C         139.4857  138.8083  162.3008 C.ar    1  UNL1        0.1345
      5 C         138.9569  140.2049  162.4421 C.ar    1  UNL1        0.0492
      6 C         138.5081  140.9633  161.2282 C.ar    1  UNL1        0.0570
      7 C         136.7727  141.1928  156.4524 C.3     1  UNL1        0.1109
      8 N         137.2215  140.4344  157.6662 N.am    1  UNL1       -0.2991
      9 C         138.1393  141.0835  158.6593 C.2     1  UNL1        0.2486
     10 O         138.6082  142.4911  158.4385 O.2     1  UNL1       -0.2700
     11 H         136.9137  139.5105  157.8111 H       1  UNL1        0.1498
     12 N         139.9345  138.0499  163.5146 N.pl3   1  UNL1       -0.2833
     13 H         140.3408  137.1586  163.4158 H       1  UNL1        0.1550
     14 C         139.7641  138.6494  164.8790 C.ar    1  UNL1        0.1334
     15 C         138.4873  138.4374  165.6373 C.ar    1  UNL1        0.0376
     16 C         138.3170  139.0369  167.0017 C.ar    1  UNL1        0.0414
     17 C         139.4234  139.8484  167.6078 C.ar    1  UNL1        0.1579
     18 C         140.7001  140.0604  166.8496 C.ar    1  UNL1        0.1370
     19 N         140.8705  139.4609  165.4851 N.ar    1  UNL1       -0.2259
     20 O         139.2530  140.4479  168.9723 O.3     1  UNL1       -0.4699
     21 C         140.2306  140.1218  170.0622 C.3     1  UNL1        0.2525
     22 N         137.9793  142.3599  161.3695 N.pl3   1  UNL1       -0.3113
     23 H         137.3797  142.7311  160.6826 H       1  UNL1        0.1523
     24 C         138.3641  143.1909  162.5575 C.ar    1  UNL1        0.0656
     25 C         137.4787  143.2246  163.7678 C.ar    1  UNL1        0.0159
     26 C         137.8636  144.0557  164.9558 C.ar    1  UNL1        0.0014
     27 C         139.1339  144.8531  164.9334 C.ar    1  UNL1        0.0014
     28 C         140.0193  144.8194  163.7231 C.ar    1  UNL1        0.0196
     29 C         139.6345  143.9884  162.5351 C.ar    1  UNL1        0.1190
     30 S         140.5199  143.9547  161.3248 S.O2    1  UNL1        0.0116
     31 C         141.4054  143.9210  160.1145 C.3     1  UNL1        0.1816
     32 O         139.5739  144.8713  160.6072 O.2     1  UNL1       -0.1685
     33 O         141.4660  143.0381  162.0424 O.2     1  UNL1       -0.1685
@<TRIPOS>BOND
     1     7     8    1
     2     8     9   am
     3     9    10    2
     4     9     1    1
     5     1     2   ar
     6     2     3   ar
     7     3     4   ar
     8     4    12    1
     9    12    14    1
    10    14    15   ar
    11    15    16   ar
    12    16    17   ar
    13    17    20    1
    14    20    21    1
    15    17    18   ar
    16    18    19   ar
    17     4     5   ar
    18     5     6   ar
    19     6    22    1
    20    22    24    1
    21    24    25   ar
    22    25    26   ar
    23    26    27   ar
    24    27    28   ar
    25    28    29   ar
    26    29    30    1
    27    30    31    1
    28    30    32    2
    29    30    33    2
    30     6     1   ar
    31    29    24   ar
    32    19    14   ar
    33     8    11    1
    34    12    13    1
    35    22    23    1
@<TRIPOS>MOLECULE
*****
 33 35 0 0 0
SMALL
GASTEIGER

@<TRIPOS>ATOM
      1 C         141.9877  140.2256  168.0811 C.ar    1  UNL1        0.0859
      2 C         141.7547  141.4178  168.9611 C.ar    1  UNL1        0.1060
      3 N         140.9899  142.5976  168.4385 N.ar    1  UNL1       -0.2288
      4 C         140.4582  142.5853  167.0360 C.ar    1  UNL1        0.1345
      5 C         140.6913  141.3932  166.1560 C.ar    1  UNL1        0.0492
      6 C         141.4561  140.2133  166.6786 C.ar    1  UNL1        0.0570
      7 C         143.4009  137.4764  170.5700 C.3     1  UNL1        0.1109
      8 N         142.6362  138.6563  170.0475 N.am    1  UNL1       -0.2991
      9 C         142.7525  139.0457  168.6036 C.2     1  UNL1        0.2486
     10 O         143.6336  138.2553  167.6823 O.2     1  UNL1       -0.2700
     11 H         142.0579  139.1750  170.6522 H       1  UNL1        0.1498
     12 N         139.6935  143.7652  166.5135 N.pl3   1  UNL1       -0.2833
     13 H         139.2492  144.3807  167.1404 H       1  UNL1        0.1550
     14 C         139.6055  144.0073  165.0358 C.ar    1  UNL1        0.1334
     15 C         138.2949  143.8415  164.3253 C.ar    1  UNL1        0.0376
     16 C         138.2069  144.0835  162.8476 C.ar    1  UNL1        0.0414
     17 C         139.4296  144.4914  162.0803 C.ar    1  UNL1        0.1579
     18 C         140.7402  144.6572  162.7908 C.ar    1  UNL1        0.1370
     19 N         140.8282  144.4152  164.2685 N.ar    1  UNL1       -0.2259
     20 O         139.3417  144.7335  160.6025 O.3     1  UNL1       -0.4699
     21 C         140.4524  145.4488  159.8923 C.3     1  UNL1        0.2525
     22 N         141.6891  139.0211  165.7985 N.pl3   1  UNL1       -0.3113
     23 H         141.3283  138.1418  166.0551 H       1  UNL1        0.1523
     24 C         142.4720  139.1687  164.5276 C.ar    1  UNL1        0.0656
     25 C         143.8696  139.7121  164.5664 C.ar    1  UNL1        0.0159
     26 C         144.6524  139.8596  163.2953 C.ar    1  UNL1        0.0014
     27 C         144.0377  139.4638  161.9856 C.ar    1  UNL1        0.0014
     28 C         142.6401  138.9204  161.9468 C.ar    1  UNL1        0.0196
     29 C         141.8572  138.7729  163.2178 C.ar    1  UNL1        0.1190
     30 S         140.4597  138.2295  163.1790 S.O2    1  UNL1        0.0116
     31 C         139.0621  137.6861  163.1402 C.3     1  UNL1        0.1816
     32 O         141.0027  136.8314  163.1999 O.2     1  UNL1       -0.1685
     33 O         139.9167  139.6276  163.1581 O.2     1  UNL1       -0.1685
@<TRIPOS>BOND
     1     7     8    1
     2     8     9   am
     3     9    10    2
     4     9     1    1
     5     1     2   ar
     6     2     3   ar
     7     3     4   ar
     8     4    12    1
     9    12    14    1
    10    14    15   ar
    11    15    16   ar
    12    16    17   ar
    13    17    20    1
    14    20    21    1
    15    17    18   ar
    16    18    19   ar
    17     4     5   ar
    18     5     6   ar
    19     6    22    1
    20    22    24    1
    21    24    25   ar
    22    25    26   ar
    23    26    27   ar
    24    27    28   ar
    25    28    29   ar
    26    29    30    1
    27    30    31    1
    28    30    32    2
    29    30    33    2
    30     6     1   ar
    31    29    24   ar
    32    19    14   ar
    33     8    11    1
    34    12    13    1
    35    22    23    1
@<TRIPOS>MOLECULE
*****
 33 35 0 0 0
SMALL
GASTEIGER

@<TRIPOS>ATOM
      1 C         140.2261  141.5803  168.1164 C.ar    1  UNL1        0.0859
      2 C         139.6205  140.3214  168.6628 C.ar    1  UNL1        0.1060
      3 N         138.9924  139.3263  167.7327 N.ar    1  UNL1       -0.2288
      4 C         138.9699  139.5899  166.2562 C.ar    1  UNL1        0.1345
      5 C         139.5755  140.8488  165.7099 C.ar    1  UNL1        0.0492
      6 C         140.2036  141.8440  166.6400 C.ar    1  UNL1        0.0570
      7 C         142.7948  143.2596  170.6327 C.3     1  UNL1        0.1109
      8 N         142.1667  142.2644  169.7026 N.am    1  UNL1       -0.2991
      9 C         140.8542  142.5755  169.0465 C.2     1  UNL1        0.2486
     10 O         140.1697  143.8817  169.3206 O.2     1  UNL1       -0.2700
     11 H         142.6160  141.4071  169.5227 H       1  UNL1        0.1498
     12 N         138.3418  138.5947  165.3261 N.pl3   1  UNL1       -0.2833
     13 H         137.6614  137.9678  165.6625 H       1  UNL1        0.1550
     14 C         138.7505  138.5547  163.8834 C.ar    1  UNL1        0.1334
     15 C         139.9812  137.8015  163.4731 C.ar    1  UNL1        0.0376
     16 C         140.3899  137.7615  162.0305 C.ar    1  UNL1        0.0414
     17 C         139.5679  138.4746  160.9980 C.ar    1  UNL1        0.1579
     18 C         138.3373  139.2277  161.4083 C.ar    1  UNL1        0.1370
     19 N         137.9286  139.2677  162.8510 N.ar    1  UNL1       -0.2259
     20 O         139.9767  138.4345  159.5553 O.3     1  UNL1       -0.4699
     21 C         141.4255  138.5445  159.1829 C.3     1  UNL1        0.2525
     22 N         140.8091  143.1029  166.0936 N.pl3   1  UNL1       -0.3113
     23 H         140.4299  143.9779  166.3379 H       1  UNL1        0.1523
     24 C         141.9925  143.0285  165.1749 C.ar    1  UNL1        0.0656
     25 C         143.3486  142.6973  165.7239 C.ar    1  UNL1        0.0159
     26 C         144.5320  142.6229  164.8051 C.ar    1  UNL1        0.0014
     27 C         144.3593  142.8799  163.3374 C.ar    1  UNL1        0.0014
     28 C         143.0033  143.2111  162.7885 C.ar    1  UNL1        0.0196
     29 C         141.8199  143.2855  163.7071 C.ar    1  UNL1        0.1190
     30 S         140.4639  143.6167  163.1581 S.O2    1  UNL1        0.0116
     31 C         139.1078  143.9480  162.6091 C.3     1  UNL1        0.1816
     32 O         140.5587  144.9905  163.7529 O.2     1  UNL1       -0.1685
     33 O         140.3691  142.2430  162.5634 O.2     1  UNL1       -0.1685
@<TRIPOS>BOND
     1     7     8    1
     2     8     9   am
     3     9    10    2
     4     9     1    1
     5     1     2   ar
     6     2     3   ar
     7     3     4   ar
     8     4    12    1
     9    12    14    1
    10    14    15   ar
    11    15    16   ar
    12    16    17   ar
    13    17    20    1
    14    20    21    1
    15    17    18   ar
    16    18    19   ar
    17     4     5   ar
    18     5     6   ar
    19     6    22    1
    20    22    24    1
    21    24    25   ar
    22    25    26   ar
    23    26    27   ar
    24    27    28   ar
    25    28    29   ar
    26    29    30    1
    27    30    31    1
    28    30    32    2
    29    30    33    2
    30     6     1   ar
    31    29    24   ar
    32    19    14   ar
    33     8    11    1
    34    12    13    1
    35    22    23    1
@<TRIPOS>MOLECULE
*****
 33 35 0 0 0
SMALL
GASTEIGER

@<TRIPOS>ATOM
      1 C         139.5929  139.6805  167.4471 C.ar    1  UNL1        0.0859
      2 C         138.1985  139.2063  167.1632 C.ar    1  UNL1        0.1060
      3 N         137.9077  138.4416  165.9059 N.ar    1  UNL1       -0.2288
      4 C         139.0114  138.1511  164.9325 C.ar    1  UNL1        0.1345
      5 C         140.4058  138.6253  165.2164 C.ar    1  UNL1        0.0492
      6 C         140.6966  139.3900  166.4737 C.ar    1  UNL1        0.0570
      7 C         140.4416  142.6845  169.8977 C.3     1  UNL1        0.1109
      8 N         140.1508  141.9198  168.6405 N.am    1  UNL1       -0.2991
      9 C         139.8837  140.4452  168.7043 C.2     1  UNL1        0.2486
     10 O         139.9075  139.7353  170.0254 O.2     1  UNL1       -0.2700
     11 H         140.1352  142.3858  167.7734 H       1  UNL1        0.1498
     12 N         138.7206  137.3864  163.6753 N.pl3   1  UNL1       -0.2833
     13 H         138.4777  136.4336  163.7237 H       1  UNL1        0.1550
     14 C         138.7998  138.0735  162.3443 C.ar    1  UNL1        0.1334
     15 C         137.7046  139.0039  161.9141 C.ar    1  UNL1        0.0376
     16 C         137.7838  139.6909  160.5831 C.ar    1  UNL1        0.0414
     17 C         138.9582  139.4477  159.6822 C.ar    1  UNL1        0.1579
     18 C         140.0534  138.5174  160.1123 C.ar    1  UNL1        0.1370
     19 N         139.9742  137.8302  161.4434 N.ar    1  UNL1       -0.2259
     20 O         139.0374  140.1348  158.3511 O.3     1  UNL1       -0.4699
     21 C         137.8725  140.9361  157.8503 C.3     1  UNL1        0.2525
     22 N         142.0911  139.8642  166.7575 N.pl3   1  UNL1       -0.3113
     23 H         142.3888  139.9893  167.6876 H       1  UNL1        0.1523
     24 C         143.0321  140.1477  165.6244 C.ar    1  UNL1        0.0656
     25 C         144.1303  139.1786  165.3010 C.ar    1  UNL1        0.0159
     26 C         145.0713  139.4622  164.1678 C.ar    1  UNL1        0.0014
     27 C         144.9141  140.7149  163.3580 C.ar    1  UNL1        0.0014
     28 C         143.8159  141.6841  163.6813 C.ar    1  UNL1        0.0196
     29 C         142.8749  141.4006  164.8145 C.ar    1  UNL1        0.1190
     30 S         141.7767  142.3697  165.1378 S.O2    1  UNL1        0.0116
     31 C         140.6784  143.3389  165.4612 C.3     1  UNL1        0.1816
     32 O         141.1497  142.1054  163.8010 O.2     1  UNL1       -0.1685
     33 O         142.4036  142.6341  166.4747 O.2     1  UNL1       -0.1685
@<TRIPOS>BOND
     1     7     8    1
     2     8     9   am
     3     9    10    2
     4     9     1    1
     5     1     2   ar
     6     2     3   ar
     7     3     4   ar
     8     4    12    1
     9    12    14    1
    10    14    15   ar
    11    15    16   ar
    12    16    17   ar
    13    17    20    1
    14    20    21    1
    15    17    18   ar
    16    18    19   ar
    17     4     5   ar
    18     5     6   ar
    19     6    22    1
    20    22    24    1
    21    24    25   ar
    22    25    26   ar
    23    26    27   ar
    24    27    28   ar
    25    28    29   ar
    26    29    30    1
    27    30    31    1
    28    30    32    2
    29    30    33    2
    30     6     1   ar
    31    29    24   ar
    32    19    14   ar
    33     8    11    1
    34    12    13    1
    35    22    23    1
@<TRIPOS>MOLECULE
*****
 33 35 0 0 0
SMALL
GASTEIGER

@<TRIPOS>ATOM
      1 C         138.8729  139.1351  164.6811 C.ar    1  UNL1        0.0859
      2 C         138.1523  138.3356  165.7258 C.ar    1  UNL1        0.1060
      3 N         138.3458  138.6530  167.1790 N.ar    1  UNL1       -0.2288
      4 C         139.2599  139.7700  167.5875 C.ar    1  UNL1        0.1345
      5 C         139.9805  140.5695  166.5428 C.ar    1  UNL1        0.0492
      6 C         139.7870  140.2521  165.0896 C.ar    1  UNL1        0.0570
      7 C         137.4981  139.2827  160.9611 C.3     1  UNL1        0.1109
      8 N         137.6916  139.6001  162.4143 N.am    1  UNL1       -0.2991
      9 C         138.6795  138.8177  163.2279 C.2     1  UNL1        0.2486
     10 O         139.4739  137.7179  162.5882 O.2     1  UNL1       -0.2700
     11 H         137.1701  140.3220  162.8342 H       1  UNL1        0.1498
     12 N         139.4534  140.0874  169.0407 N.pl3   1  UNL1       -0.2833
     13 H         138.8483  139.7002  169.7139 H       1  UNL1        0.1550
     14 C         140.5687  140.9947  169.4682 C.ar    1  UNL1        0.1334
     15 C         141.9400  140.4360  169.7078 C.ar    1  UNL1        0.0376
     16 C         143.0553  141.3434  170.1353 C.ar    1  UNL1        0.0414
     17 C         142.7993  142.8094  170.3232 C.ar    1  UNL1        0.1579
     18 C         141.4281  143.3681  170.0836 C.ar    1  UNL1        0.1370
     19 N         140.3127  142.4607  169.6560 N.ar    1  UNL1       -0.2259
     20 O         143.9147  143.7167  170.7507 O.3     1  UNL1       -0.4699
     21 C         145.3317  143.3866  170.3860 C.3     1  UNL1        0.2525
     22 N         140.5077  141.0516  164.0448 N.pl3   1  UNL1       -0.3113
     23 H         141.2785  140.6625  163.5719 H       1  UNL1        0.1523
     24 C         140.0540  142.4441  163.7207 C.ar    1  UNL1        0.0656
     25 C         138.5890  142.7549  163.6358 C.ar    1  UNL1        0.0159
     26 C         138.1353  144.1475  163.3116 C.ar    1  UNL1        0.0014
     27 C         139.1466  145.2292  163.0725 C.ar    1  UNL1        0.0014
     28 C         140.6116  144.9184  163.1574 C.ar    1  UNL1        0.0196
     29 C         141.0653  143.5259  163.4815 C.ar    1  UNL1        0.1190
     30 S         142.5303  143.2151  163.5665 S.O2    1  UNL1        0.0116
     31 C         143.9952  142.9043  163.6514 C.3     1  UNL1        0.1816
     32 O         142.6403  143.3262  162.0747 O.2     1  UNL1       -0.1685
     33 O         142.4202  143.1040  165.0583 O.2     1  UNL1       -0.1685
@<TRIPOS>BOND
     1     7     8    1
     2     8     9   am
     3     9    10    2
     4     9     1    1
     5     1     2   ar
     6     2     3   ar
     7     3     4   ar
     8     4    12    1
     9    12    14    1
    10    14    15   ar
    11    15    16   ar
    12    16    17   ar
    13    17    20    1
    14    20    21    1
    15    17    18   ar
    16    18    19   ar
    17     4     5   ar
    18     5     6   ar
    19     6    22    1
    20    22    24    1
    21    24    25   ar
    22    25    26   ar
    23    26    27   ar
    24    27    28   ar
    25    28    29   ar
    26    29    30    1
    27    30    31    1
    28    30    32    2
    29    30    33    2
    30     6     1   ar
    31    29    24   ar
    32    19    14   ar
    33     8    11    1
    34    12    13    1
    35    22    23    1
@<TRIPOS>MOLECULE
*****
 33 35 0 0 0
SMALL
GASTEIGER

@<TRIPOS>ATOM
      1 C         139.3960  139.7322  163.7278 C.ar    1  UNL1        0.0859
      2 C         138.5016  138.8995  164.5976 C.ar    1  UNL1        0.1060
      3 N         138.5846  139.0188  166.0905 N.ar    1  UNL1       -0.2288
      4 C         139.5621  139.9707  166.7137 C.ar    1  UNL1        0.1345
      5 C         140.4566  140.8033  165.8438 C.ar    1  UNL1        0.0492
      6 C         140.3735  140.6841  164.3509 C.ar    1  UNL1        0.0570
      7 C         139.5403  138.1861  160.0755 C.3     1  UNL1        0.1109
      8 N         139.6234  138.3054  161.5685 N.am    1  UNL1       -0.2991
      9 C         139.3130  139.6129  162.2348 C.2     1  UNL1        0.2486
     10 O         138.9195  140.8011  161.4082 O.2     1  UNL1       -0.2700
     11 H         139.8816  137.5255  162.1110 H       1  UNL1        0.1498
     12 N         139.6452  140.0900  168.2066 N.pl3   1  UNL1       -0.2833
     13 H         139.0140  139.5934  168.7760 H       1  UNL1        0.1550
     14 C         140.6899  140.9659  168.8321 C.ar    1  UNL1        0.1334
     15 C         140.3792  142.4006  169.1407 C.ar    1  UNL1        0.0376
     16 C         141.4239  143.2765  169.7661 C.ar    1  UNL1        0.0414
     17 C         142.7794  142.7178  170.0830 C.ar    1  UNL1        0.1579
     18 C         143.0902  141.2832  169.7744 C.ar    1  UNL1        0.1370
     19 N         142.0455  140.4072  169.1489 N.ar    1  UNL1       -0.2259
     20 O         143.8242  143.5938  170.7085 O.3     1  UNL1       -0.4699
     21 C         145.2726  143.3865  170.3781 C.3     1  UNL1        0.2525
     22 N         141.2681  141.5167  163.4811 N.pl3   1  UNL1       -0.3113
     23 H         140.8777  142.1179  162.8062 H       1  UNL1        0.1523
     24 C         142.7573  141.4335  163.6395 C.ar    1  UNL1        0.0656
     25 C         143.4275  140.0951  163.7371 C.ar    1  UNL1        0.0159
     26 C         144.9169  140.0118  163.8955 C.ar    1  UNL1        0.0014
     27 C         145.7359  141.2670  163.9564 C.ar    1  UNL1        0.0014
     28 C         145.0657  142.6054  163.8588 C.ar    1  UNL1        0.0196
     29 C         143.5765  142.6886  163.7004 C.ar    1  UNL1        0.1190
     30 S         142.9063  144.0270  163.6028 S.O2    1  UNL1        0.0116
     31 C         142.2361  145.3654  163.5052 C.3     1  UNL1        0.1816
     32 O         142.2164  143.7770  164.9111 O.2     1  UNL1       -0.1685
     33 O         143.5961  144.2771  162.2945 O.2     1  UNL1       -0.1685
@<TRIPOS>BOND
     1     7     8    1
     2     8     9   am
     3     9    10    2
     4     9     1    1
     5     1     2   ar
     6     2     3   ar
     7     3     4   ar
     8     4    12    1
     9    12    14    1
    10    14    15   ar
    11    15    16   ar
    12    16    17   ar
    13    17    20    1
    14    20    21    1
    15    17    18   ar
    16    18    19   ar
    17     4     5   ar
    18     5     6   ar
    19     6    22    1
    20    22    24    1
    21    24    25   ar
    22    25    26   ar
    23    26    27   ar
    24    27    28   ar
    25    28    29   ar
    26    29    30    1
    27    30    31    1
    28    30    32    2
    29    30    33    2
    30     6     1   ar
    31    29    24   ar
    32    19    14   ar
    33     8    11    1
    34    12    13    1
    35    22    23    1
@<TRIPOS>MOLECULE
*****
 33 35 0 0 0
SMALL
GASTEIGER

@<TRIPOS>ATOM
      1 C         142.5035  140.0504  167.0172 C.ar    1  UNL1        0.0859
      2 C         143.1581  138.7020  166.9592 C.ar    1  UNL1        0.1060
      3 N         143.1027  137.8951  165.6959 N.ar    1  UNL1       -0.2288
      4 C         142.3927  138.4366  164.4907 C.ar    1  UNL1        0.1345
      5 C         141.7381  139.7849  164.5487 C.ar    1  UNL1        0.0492
      6 C         141.7935  140.5918  165.8120 C.ar    1  UNL1        0.0570
      7 C         142.0288  141.1150  170.8108 C.3     1  UNL1        0.1109
      8 N         141.9734  140.3081  169.5475 N.am    1  UNL1       -0.2991
      9 C         142.5590  140.8573  168.2805 C.2     1  UNL1        0.2486
     10 O         143.2000  142.2134  168.2767 O.2     1  UNL1       -0.2700
     11 H         141.5527  139.4180  169.5500 H       1  UNL1        0.1498
     12 N         142.3372  137.6297  163.2274 N.pl3   1  UNL1       -0.2833
     13 H         142.8971  136.8255  163.1320 H       1  UNL1        0.1550
     14 C         141.4288  138.0480  162.1095 C.ar    1  UNL1        0.1334
     15 C         141.9691  138.8539  160.9656 C.ar    1  UNL1        0.0376
     16 C         141.0607  139.2722  159.8477 C.ar    1  UNL1        0.0414
     17 C         139.6119  138.8847  159.8737 C.ar    1  UNL1        0.1579
     18 C         139.0715  138.0788  161.0176 C.ar    1  UNL1        0.1370
     19 N         139.9799  137.6604  162.1355 N.ar    1  UNL1       -0.2259
     20 O         138.7034  139.3030  158.7557 O.3     1  UNL1       -0.4699
     21 C         138.0920  140.6727  158.7588 C.3     1  UNL1        0.2525
     22 N         141.1389  141.9403  165.8699 N.pl3   1  UNL1       -0.3113
     23 H         140.3464  142.0787  166.4374 H       1  UNL1        0.1523
     24 C         141.6918  143.0777  165.0634 C.ar    1  UNL1        0.0656
     25 C         143.1730  143.3077  165.0084 C.ar    1  UNL1        0.0159
     26 C         143.7259  144.4452  164.2018 C.ar    1  UNL1        0.0014
     27 C         142.7975  145.3526  163.4503 C.ar    1  UNL1        0.0014
     28 C         141.3163  145.1225  163.5053 C.ar    1  UNL1        0.0196
     29 C         140.7634  143.9851  164.3118 C.ar    1  UNL1        0.1190
     30 S         139.2822  143.7551  164.3669 S.O2    1  UNL1        0.0116
     31 C         137.8009  143.5250  164.4219 C.3     1  UNL1        0.1816
     32 O         139.4422  142.5234  163.5258 O.2     1  UNL1       -0.1685
     33 O         139.1221  144.9868  165.2079 O.2     1  UNL1       -0.1685
@<TRIPOS>BOND
     1     7     8    1
     2     8     9   am
     3     9    10    2
     4     9     1    1
     5     1     2   ar
     6     2     3   ar
     7     3     4   ar
     8     4    12    1
     9    12    14    1
    10    14    15   ar
    11    15    16   ar
    12    16    17   ar
    13    17    20    1
    14    20    21    1
    15    17    18   ar
    16    18    19   ar
    17     4     5   ar
    18     5     6   ar
    19     6    22    1
    20    22    24    1
    21    24    25   ar
    22    25    26   ar
    23    26    27   ar
    24    27    28   ar
    25    28    29   ar
    26    29    30    1
    27    30    31    1
    28    30    32    2
    29    30    33    2
    30     6     1   ar
    31    29    24   ar
    32    19    14   ar
    33     8    11    1
    34    12    13    1
    35    22    23    1
