@<TRIPOS>MOLECULE
*****
 29 33 0 0 0
SMALL
GASTEIGER

@<TRIPOS>ATOM
      1 N         138.3493  140.7302  163.9687 N.3     1  UNL1       -0.2712
      2 C         138.4656  139.2414  164.1098 C.3     1  UNL1        0.0739
      3 C         139.0207  138.9470  165.4719 C.3     1  UNL1        0.0389
      4 C         139.2475  140.2537  166.1725 C.3     1  UNL1        0.0971
      5 C         138.8325  141.3559  165.2435 C.3     1  UNL1        0.0925
      6 N         139.7934  140.4278  167.5588 N.am    1  UNL1       -0.2589
      7 C         139.1481  139.9521  168.8266 C.2     1  UNL1        0.2338
      8 O         137.8437  139.2189  168.9308 O.2     1  UNL1       -0.2742
      9 C         140.0363  140.3385  169.9719 C.3     1  UNL1        0.1131
     10 C         141.2305  141.0529  169.4120 C.ar    1  UNL1        0.0007
     11 C         142.4352  141.6603  170.0675 C.ar    1  UNL1       -0.0026
     12 C         143.4897  142.3229  169.2315 C.ar    1  UNL1       -0.0002
     13 C         143.3396  142.3781  167.7401 C.ar    1  UNL1        0.0013
     14 C         142.1349  141.7707  167.0846 C.ar    1  UNL1        0.0146
     15 C         141.0803  141.1081  167.9205 C.ar    1  UNL1        0.0503
     16 C         137.8393  141.4646  162.7642 C.3     1  UNL1        0.0722
     17 C         138.4699  142.6001  162.3253 C.2     1  UNL1        0.4048
     18 O         137.4343  142.5930  163.4106 O.2     1  UNL1       -0.2262
     19 N         139.1095  143.8910  161.9075 N.am    1  UNL1       -0.2493
     20 C         140.1541  144.0535  160.8434 C.3     1  UNL1        0.0786
     21 C         140.5070  145.5089  160.7586 C.3     1  UNL1        0.0216
     22 C         139.6805  146.2459  161.7704 C.3     1  UNL1        0.0216
     23 C         138.8168  145.2461  162.4805 C.3     1  UNL1        0.0786
     24 C         138.0830  144.0392  163.0137 C.3     1  UNL1        0.0214
     25 C         138.4789  142.7555  162.3463 C.3     1  UNL1        0.0193
     26 C         139.5145  142.7626  161.2612 C.3     1  UNL1        0.0214
     27 O         138.8659  141.3164  161.6581 O.3     1  UNL1       -0.4345
     28 C         138.6296  139.6530  159.6763 C.3     1  UNL1        0.0513
     29 C         138.1427  140.8571  160.4267 C.3     1  UNL1        0.2102
@<TRIPOS>BOND
     1    28    29    1
     2    29    27    1
     3    27    17    1
     4    17    18    2
     5    17    19   am
     6    19    20    1
     7    20    21    1
     8    21    22    1
     9    23    22    1
    10    23    24    1
    11    24    25    1
    12    25    16    1
    13    16     1    1
    14     1     2    1
    15     2     3    1
    16     3     4    1
    17     4     6    1
    18     6     7   am
    19     7     8    2
    20     7     9    1
    21     9    10    1
    22    10    11   ar
    23    11    12   ar
    24    12    13   ar
    25    13    14   ar
    26    14    15   ar
    27     4     5    1
    28    25    26    1
    29    23    19    1
    30     5     1    1
    31    26    20    1
    32    15     6    1
    33    15    10   ar
@<TRIPOS>MOLECULE
*****
 29 33 0 0 0
SMALL
GASTEIGER

@<TRIPOS>ATOM
      1 N         138.6092  140.3954  163.3993 N.3     1  UNL1       -0.2712
      2 C         138.5171  138.8982  163.3991 C.3     1  UNL1        0.0739
      3 C         139.3703  138.3814  164.5194 C.3     1  UNL1        0.0389
      4 C         139.9897  139.5590  165.2118 C.3     1  UNL1        0.0971
      5 C         139.5192  140.8038  164.5195 C.3     1  UNL1        0.0925
      6 N         140.9167  139.5020  166.3896 N.am    1  UNL1       -0.2589
      7 C         142.3717  139.1396  166.3497 C.2     1  UNL1        0.2338
      8 O         143.1552  138.7707  165.1250 O.2     1  UNL1       -0.2742
      9 C         142.9057  139.2110  167.7497 C.3     1  UNL1        0.1131
     10 C         141.7807  139.6174  168.6548 C.ar    1  UNL1        0.0007
     11 C         141.7168  139.8470  170.1357 C.ar    1  UNL1       -0.0026
     12 C         140.4237  140.2564  170.7760 C.ar    1  UNL1       -0.0002
     13 C         139.1944  140.4363  169.9355 C.ar    1  UNL1        0.0013
     14 C         139.2583  140.2067  168.4546 C.ar    1  UNL1        0.0146
     15 C         140.5514  139.7973  167.8142 C.ar    1  UNL1        0.0503
     16 C         137.9132  141.3216  162.4464 C.3     1  UNL1        0.0722
     17 C         138.5066  142.5040  162.0865 C.2     1  UNL1        0.4048
     18 O         137.5472  142.3723  163.2321 O.2     1  UNL1       -0.2262
     19 N         139.1097  143.8389  161.7629 N.am    1  UNL1       -0.2493
     20 C         140.0787  144.1230  160.6538 C.3     1  UNL1        0.0786
     21 C         140.4174  145.5836  160.6971 C.3     1  UNL1        0.0216
     22 C         139.6578  146.2022  161.8330 C.3     1  UNL1        0.0216
     23 C         138.8495  145.1239  162.4918 C.3     1  UNL1        0.0786
     24 C         138.1599  143.8596  162.9449 C.3     1  UNL1        0.0214
     25 C         138.5163  142.6565  162.1228 C.3     1  UNL1        0.0193
     26 C         139.4757  142.7882  160.9773 C.3     1  UNL1        0.0214
     27 O         138.8630  141.3010  161.2645 O.3     1  UNL1       -0.4345
     28 C         138.5920  139.9300  159.0744 C.3     1  UNL1        0.0513
     29 C         138.1086  141.0048  160.0023 C.3     1  UNL1        0.2102
@<TRIPOS>BOND
     1    28    29    1
     2    29    27    1
     3    27    17    1
     4    17    18    2
     5    17    19   am
     6    19    20    1
     7    20    21    1
     8    21    22    1
     9    23    22    1
    10    23    24    1
    11    24    25    1
    12    25    16    1
    13    16     1    1
    14     1     2    1
    15     2     3    1
    16     3     4    1
    17     4     6    1
    18     6     7   am
    19     7     8    2
    20     7     9    1
    21     9    10    1
    22    10    11   ar
    23    11    12   ar
    24    12    13   ar
    25    13    14   ar
    26    14    15   ar
    27     4     5    1
    28    25    26    1
    29    23    19    1
    30     5     1    1
    31    26    20    1
    32    15     6    1
    33    15    10   ar
@<TRIPOS>MOLECULE
*****
 29 33 0 0 0
SMALL
GASTEIGER

@<TRIPOS>ATOM
      1 N         144.1911  140.6146  164.0833 N.3     1  UNL1       -0.2712
      2 C         144.6173  139.2729  164.6012 C.3     1  UNL1        0.0739
      3 C         143.6210  138.8372  165.6344 C.3     1  UNL1        0.0389
      4 C         142.5791  139.9094  165.7551 C.3     1  UNL1        0.0971
      5 C         142.9315  141.0080  164.7964 C.3     1  UNL1        0.0925
      6 N         141.3931  139.8872  166.6731 N.am    1  UNL1       -0.2589
      7 C         139.9836  139.5517  166.2847 C.2     1  UNL1        0.2338
      8 O         139.5127  139.1796  164.9100 O.2     1  UNL1       -0.2742
      9 C         139.1278  139.6537  167.5124 C.3     1  UNL1        0.1131
     10 C         140.0083  140.0522  168.6595 C.ar    1  UNL1        0.0007
     11 C         139.7161  140.3023  170.1093 C.ar    1  UNL1       -0.0026
     12 C         140.8240  140.6966  171.0405 C.ar    1  UNL1       -0.0002
     13 C         142.2240  140.8409  170.5218 C.ar    1  UNL1        0.0013
     14 C         142.5162  140.5909  169.0720 C.ar    1  UNL1        0.0146
     15 C         141.4084  140.1965  168.1408 C.ar    1  UNL1        0.0503
     16 C         144.9002  141.4213  163.0361 C.3     1  UNL1        0.0722
     17 C         144.5212  141.4206  161.7185 C.2     1  UNL1        0.4048
     18 O         144.5806  140.1838  162.5653 O.2     1  UNL1       -0.2262
     19 N         144.0946  141.3271  160.2834 N.am    1  UNL1       -0.2493
     20 C         143.9876  142.4711  159.3191 C.3     1  UNL1        0.0786
     21 C         143.5271  141.9243  158.0005 C.3     1  UNL1        0.0216
     22 C         143.3494  140.4424  158.1498 C.3     1  UNL1        0.0216
     23 C         143.7001  140.0733  159.5607 C.3     1  UNL1        0.0786
     24 C         144.1064  139.9977  161.0128 C.3     1  UNL1        0.0214
     25 C         144.4736  141.3279  161.6010 C.3     1  UNL1        0.0193
     26 C         144.4142  142.5646  160.7542 C.3     1  UNL1        0.0214
     27 O         144.8883  142.7507  162.3067 O.3     1  UNL1       -0.4345
     28 C         143.9083  144.7003  163.7168 C.3     1  UNL1        0.0513
     29 C         143.8306  143.7914  162.5261 C.3     1  UNL1        0.2102
@<TRIPOS>BOND
     1    28    29    1
     2    29    27    1
     3    27    17    1
     4    17    18    2
     5    17    19   am
     6    19    20    1
     7    20    21    1
     8    21    22    1
     9    23    22    1
    10    23    24    1
    11    24    25    1
    12    25    16    1
    13    16     1    1
    14     1     2    1
    15     2     3    1
    16     3     4    1
    17     4     6    1
    18     6     7   am
    19     7     8    2
    20     7     9    1
    21     9    10    1
    22    10    11   ar
    23    11    12   ar
    24    12    13   ar
    25    13    14   ar
    26    14    15   ar
    27     4     5    1
    28    25    26    1
    29    23    19    1
    30     5     1    1
    31    26    20    1
    32    15     6    1
    33    15    10   ar
@<TRIPOS>MOLECULE
*****
 29 33 0 0 0
SMALL
GASTEIGER

@<TRIPOS>ATOM
      1 N         142.6128  144.1672  163.9745 N.3     1  UNL1       -0.2712
      2 C         144.0177  144.3692  164.4600 C.3     1  UNL1        0.0739
      3 C         144.3437  143.2564  165.4115 C.3     1  UNL1        0.0389
      4 C         143.1404  142.3667  165.5141 C.3     1  UNL1        0.0971
      5 C         142.0707  142.9296  164.6260 C.3     1  UNL1        0.0925
      6 N         143.0268  141.1310  166.3568 N.am    1  UNL1       -0.2589
      7 C         143.1985  139.7194  165.8795 C.2     1  UNL1        0.2338
      8 O         143.5141  139.2956  164.4756 O.2     1  UNL1       -0.2742
      9 C         142.9993  138.8060  167.0525 C.3     1  UNL1        0.1131
     10 C         142.7044  139.6531  168.2548 C.ar    1  UNL1        0.0007
     11 C         142.4227  139.3016  169.6855 C.ar    1  UNL1       -0.0026
     12 C         142.1579  140.3871  170.6863 C.ar    1  UNL1       -0.0002
     13 C         142.1749  141.8240  170.2563 C.ar    1  UNL1        0.0013
     14 C         142.4566  142.1755  168.8256 C.ar    1  UNL1        0.0146
     15 C         142.7214  141.0900  167.8248 C.ar    1  UNL1        0.0503
     16 C         141.8790  145.0483  163.0074 C.3     1  UNL1        0.0722
     17 C         141.5487  144.6403  161.7408 C.2     1  UNL1        0.4048
     18 O         142.8900  144.3977  162.3671 O.2     1  UNL1       -0.2262
     19 N         141.2735  144.1582  160.3473 N.am    1  UNL1       -0.2493
     20 C         139.9873  144.3267  159.5939 C.3     1  UNL1        0.0786
     21 C         140.1551  143.6956  158.2435 C.3     1  UNL1        0.0216
     22 C         141.5449  143.1372  158.1622 C.3     1  UNL1        0.0216
     23 C         142.2361  143.4231  159.4624 C.3     1  UNL1        0.0786
     24 C         142.6698  143.8415  160.8467 C.3     1  UNL1        0.0214
     25 C         141.6037  144.5662  161.6138 C.3     1  UNL1        0.0193
     26 C         140.2626  144.8087  160.9875 C.3     1  UNL1        0.0214
     27 O         140.4827  145.3650  162.5079 O.3     1  UNL1       -0.4345
     28 C         138.8423  144.8670  164.4601 C.3     1  UNL1        0.0513
     29 C         139.3097  144.6092  163.0583 C.3     1  UNL1        0.2102
@<TRIPOS>BOND
     1    28    29    1
     2    29    27    1
     3    27    17    1
     4    17    18    2
     5    17    19   am
     6    19    20    1
     7    20    21    1
     8    21    22    1
     9    23    22    1
    10    23    24    1
    11    24    25    1
    12    25    16    1
    13    16     1    1
    14     1     2    1
    15     2     3    1
    16     3     4    1
    17     4     6    1
    18     6     7   am
    19     7     8    2
    20     7     9    1
    21     9    10    1
    22    10    11   ar
    23    11    12   ar
    24    12    13   ar
    25    13    14   ar
    26    14    15   ar
    27     4     5    1
    28    25    26    1
    29    23    19    1
    30     5     1    1
    31    26    20    1
    32    15     6    1
    33    15    10   ar
@<TRIPOS>MOLECULE
*****
 29 33 0 0 0
SMALL
GASTEIGER

@<TRIPOS>ATOM
      1 N         138.5634  140.8552  163.7612 N.3     1  UNL1       -0.2712
      2 C         138.4853  139.3717  163.5529 C.3     1  UNL1        0.0739
      3 C         139.4001  138.7158  164.5442 C.3     1  UNL1        0.0389
      4 C         140.0436  139.7937  165.3651 C.3     1  UNL1        0.0971
      5 C         139.5265  141.1159  164.8812 C.3     1  UNL1        0.0925
      6 N         141.0309  139.5859  166.4751 N.am    1  UNL1       -0.2589
      7 C         142.3944  138.9754  166.3396 C.2     1  UNL1        0.2338
      8 O         143.0099  138.4655  165.0703 O.2     1  UNL1       -0.2742
      9 C         143.0342  138.9643  167.6962 C.3     1  UNL1        0.1131
     10 C         142.0662  139.5680  168.6702 C.ar    1  UNL1        0.0007
     11 C         142.1522  139.8174  170.1468 C.ar    1  UNL1       -0.0026
     12 C         141.0001  140.4511  170.8687 C.ar    1  UNL1       -0.0002
     13 C         139.7620  140.8352  170.1140 C.ar    1  UNL1        0.0013
     14 C         139.6760  140.5857  168.6374 C.ar    1  UNL1        0.0146
     15 C         140.8281  139.9521  167.9155 C.ar    1  UNL1        0.0503
     16 C         137.8105  141.8953  162.9856 C.3     1  UNL1        0.0722
     17 C         138.3717  142.4475  161.8632 C.2     1  UNL1        0.4048
     18 O         137.4445  141.2687  161.8330 O.2     1  UNL1       -0.2262
     19 N         138.9404  142.9873  160.5844 N.am    1  UNL1       -0.2493
     20 C         139.8752  144.1536  160.4582 C.3     1  UNL1        0.0786
     21 C         140.1868  144.3426  159.0032 C.3     1  UNL1        0.0216
     22 C         139.4445  143.2931  158.2301 C.3     1  UNL1        0.0216
     23 C         138.6742  142.4555  159.2073 C.3     1  UNL1        0.0786
     24 C         138.0208  141.7960  160.3979 C.3     1  UNL1        0.0214
     25 C         138.3793  142.4351  161.7069 C.3     1  UNL1        0.0193
     26 C         139.3065  143.6138  161.7370 C.3     1  UNL1        0.0214
     27 O         138.7301  143.0865  163.1721 O.3     1  UNL1       -0.4345
     28 C         138.0745  144.6946  165.1045 C.3     1  UNL1        0.0513
     29 C         137.9409  144.2585  163.6755 C.3     1  UNL1        0.2102
@<TRIPOS>BOND
     1    28    29    1
     2    29    27    1
     3    27    17    1
     4    17    18    2
     5    17    19   am
     6    19    20    1
     7    20    21    1
     8    21    22    1
     9    23    22    1
    10    23    24    1
    11    24    25    1
    12    25    16    1
    13    16     1    1
    14     1     2    1
    15     2     3    1
    16     3     4    1
    17     4     6    1
    18     6     7   am
    19     7     8    2
    20     7     9    1
    21     9    10    1
    22    10    11   ar
    23    11    12   ar
    24    12    13   ar
    25    13    14   ar
    26    14    15   ar
    27     4     5    1
    28    25    26    1
    29    23    19    1
    30     5     1    1
    31    26    20    1
    32    15     6    1
    33    15    10   ar
@<TRIPOS>MOLECULE
*****
 29 33 0 0 0
SMALL
GASTEIGER

@<TRIPOS>ATOM
      1 N         142.0233  137.8788  158.0992 N.3     1  UNL1       -0.2712
      2 C         140.7036  138.5176  158.4160 C.3     1  UNL1        0.0739
      3 C         140.7175  138.9176  159.8616 C.3     1  UNL1        0.0389
      4 C         142.0457  138.5261  160.4382 C.3     1  UNL1        0.0971
      5 C         142.8528  137.8841  159.3490 C.3     1  UNL1        0.0925
      6 N         142.4891  138.7392  161.8553 N.am    1  UNL1       -0.2589
      7 C         142.0165  137.9687  163.0523 C.2     1  UNL1        0.2338
      8 O         141.0176  136.8497  163.0425 O.2     1  UNL1       -0.2742
      9 C         142.7183  138.5135  164.2609 C.3     1  UNL1        0.1131
     10 C         143.6245  139.6209  163.8108 C.ar    1  UNL1        0.0007
     11 C         144.5604  140.5202  164.5627 C.ar    1  UNL1       -0.0026
     12 C         145.3546  141.5589  163.8278 C.ar    1  UNL1       -0.0002
     13 C         145.2130  141.6984  162.3410 C.ar    1  UNL1        0.0013
     14 C         144.2771  140.7991  161.5892 C.ar    1  UNL1        0.0146
     15 C         143.4829  139.7604  162.3240 C.ar    1  UNL1        0.0503
     16 C         142.4404  137.3309  156.7665 C.3     1  UNL1        0.0722
     17 C         142.3243  135.9968  156.4726 C.2     1  UNL1        0.4048
     18 O         143.2607  136.5389  157.5115 O.2     1  UNL1       -0.2262
     19 N         142.2623  134.5202  156.2161 N.am    1  UNL1       -0.2493
     20 C         141.3801  133.8355  155.2147 C.3     1  UNL1        0.0786
     21 C         141.6442  132.3612  155.2957 C.3     1  UNL1        0.0216
     22 C         142.6897  132.1347  156.3472 C.3     1  UNL1        0.0216
     23 C         143.0717  133.4690  156.9161 C.3     1  UNL1        0.0786
     24 C         143.2529  134.9198  157.2925 C.3     1  UNL1        0.0214
     25 C         142.3784  135.8543  156.5100 C.3     1  UNL1        0.0193
     26 C         141.4421  135.3121  155.4712 C.3     1  UNL1        0.0214
     27 O         141.4499  136.9313  155.6902 O.3     1  UNL1       -0.4345
     28 C         141.0726  138.4559  153.6207 C.3     1  UNL1        0.0513
     29 C         141.9633  137.5592  154.4285 C.3     1  UNL1        0.2102
@<TRIPOS>BOND
     1    28    29    1
     2    29    27    1
     3    27    17    1
     4    17    18    2
     5    17    19   am
     6    19    20    1
     7    20    21    1
     8    21    22    1
     9    23    22    1
    10    23    24    1
    11    24    25    1
    12    25    16    1
    13    16     1    1
    14     1     2    1
    15     2     3    1
    16     3     4    1
    17     4     6    1
    18     6     7   am
    19     7     8    2
    20     7     9    1
    21     9    10    1
    22    10    11   ar
    23    11    12   ar
    24    12    13   ar
    25    13    14   ar
    26    14    15   ar
    27     4     5    1
    28    25    26    1
    29    23    19    1
    30     5     1    1
    31    26    20    1
    32    15     6    1
    33    15    10   ar
@<TRIPOS>MOLECULE
*****
 29 33 0 0 0
SMALL
GASTEIGER

@<TRIPOS>ATOM
      1 N         141.1059  144.0729  163.9276 N.3     1  UNL1       -0.2712
      2 C         139.8355  144.7480  164.3523 C.3     1  UNL1        0.0739
      3 C         139.2262  143.9362  165.4567 C.3     1  UNL1        0.0389
      4 C         140.1198  142.7595  165.7146 C.3     1  UNL1        0.0971
      5 C         141.2817  142.8439  164.7696 C.3     1  UNL1        0.0925
      6 N         139.8918  141.6866  166.7378 N.am    1  UNL1       -0.2589
      7 C         139.1828  140.3850  166.5075 C.2     1  UNL1        0.2338
      8 O         138.5773  139.9276  165.2136 O.2     1  UNL1       -0.2742
      9 C         139.1857  139.6210  167.7984 C.3     1  UNL1        0.1131
     10 C         139.8964  140.4504  168.8264 C.ar    1  UNL1        0.0007
     11 C         140.2025  140.2082  170.2747 C.ar    1  UNL1       -0.0026
     12 C         140.9451  141.2425  171.0675 C.ar    1  UNL1       -0.0002
     13 C         141.3816  142.5192  170.4120 C.ar    1  UNL1        0.0013
     14 C         141.0754  142.7615  168.9637 C.ar    1  UNL1        0.0146
     15 C         140.3329  141.7271  168.1710 C.ar    1  UNL1        0.0503
     16 C         142.0372  144.5440  162.8502 C.3     1  UNL1        0.0722
     17 C         141.6982  144.4151  161.5280 C.2     1  UNL1        0.4048
     18 O         141.1961  145.5204  162.4091 O.2     1  UNL1       -0.2262
     19 N         141.2752  144.3512  160.0903 N.am    1  UNL1       -0.2493
     20 C         141.6931  143.3111  159.0936 C.3     1  UNL1        0.0786
     21 C         141.0361  143.6333  157.7842 C.3     1  UNL1        0.0216
     22 C         140.2121  144.8726  157.9716 C.3     1  UNL1        0.0216
     23 C         140.3598  145.3163  159.3968 C.3     1  UNL1        0.0786
     24 C         140.6889  145.5215  160.8559 C.3     1  UNL1        0.0214
     25 C         141.6141  144.4801  161.4125 C.3     1  UNL1        0.0193
     26 C         142.1162  143.3750  160.5313 C.3     1  UNL1        0.0214
     27 O         142.6234  143.3738  162.0845 O.3     1  UNL1       -0.4345
     28 C         145.0327  142.5475  162.5966 C.3     1  UNL1        0.0513
     29 C         144.1058  143.6023  162.0691 C.3     1  UNL1        0.2102
@<TRIPOS>BOND
     1    28    29    1
     2    29    27    1
     3    27    17    1
     4    17    18    2
     5    17    19   am
     6    19    20    1
     7    20    21    1
     8    21    22    1
     9    23    22    1
    10    23    24    1
    11    24    25    1
    12    25    16    1
    13    16     1    1
    14     1     2    1
    15     2     3    1
    16     3     4    1
    17     4     6    1
    18     6     7   am
    19     7     8    2
    20     7     9    1
    21     9    10    1
    22    10    11   ar
    23    11    12   ar
    24    12    13   ar
    25    13    14   ar
    26    14    15   ar
    27     4     5    1
    28    25    26    1
    29    23    19    1
    30     5     1    1
    31    26    20    1
    32    15     6    1
    33    15    10   ar
@<TRIPOS>MOLECULE
*****
 29 33 0 0 0
SMALL
GASTEIGER

@<TRIPOS>ATOM
      1 N         142.5516  139.7459  165.3094 N.3     1  UNL1       -0.2712
      2 C         143.8674  139.0299  165.2315 C.3     1  UNL1        0.0739
      3 C         144.4991  139.3636  163.9126 C.3     1  UNL1        0.0389
      4 C         143.5738  140.2857  163.1754 C.3     1  UNL1        0.0971
      5 C         142.3701  140.5220  164.0387 C.3     1  UNL1        0.0925
      6 N         143.8106  140.8691  161.8139 N.am    1  UNL1       -0.2589
      7 C         144.3760  142.2276  161.5230 C.2     1  UNL1        0.2338
      8 O         144.8039  143.2413  162.5425 O.2     1  UNL1       -0.2742
      9 C         144.4383  142.3945  160.0336 C.3     1  UNL1        0.1131
     10 C         143.9114  141.1391  159.4040 C.ar    1  UNL1        0.0007
     11 C         143.7348  140.7326  157.9710 C.ar    1  UNL1       -0.0026
     12 C         143.1702  139.3834  157.6383 C.ar    1  UNL1       -0.0002
     13 C         142.7823  138.4406  158.7386 C.ar    1  UNL1        0.0013
     14 C         142.9589  138.8471  160.1716 C.ar    1  UNL1        0.0146
     15 C         143.5235  140.1963  160.5043 C.ar    1  UNL1        0.0503
     16 C         141.5866  139.6948  166.4567 C.3     1  UNL1        0.0722
     17 C         141.5255  140.6971  167.3902 C.2     1  UNL1        0.4048
     18 O         142.7311  139.8290  167.1828 O.2     1  UNL1       -0.2262
     19 N         141.5463  141.7721  168.4362 N.am    1  UNL1       -0.2493
     20 C         140.4227  142.7128  168.7561 C.3     1  UNL1        0.0786
     21 C         140.8764  143.6171  169.8635 C.3     1  UNL1        0.0216
     22 C         142.2804  143.2353  170.2280 C.3     1  UNL1        0.0216
     23 C         142.6945  142.0950  169.3458 C.3     1  UNL1        0.0786
     24 C         142.8338  140.9765  168.3414 C.3     1  UNL1        0.0214
     25 C         141.6074  140.7697  167.5027 C.3     1  UNL1        0.0193
     26 C         140.4019  141.6379  167.7101 C.3     1  UNL1        0.0214
     27 O         140.2992  140.4903  166.5516 O.3     1  UNL1       -0.4345
     28 C         138.0819  139.2111  166.1074 C.3     1  UNL1        0.0513
     29 C         139.2143  139.5683  167.0238 C.3     1  UNL1        0.2102
@<TRIPOS>BOND
     1    28    29    1
     2    29    27    1
     3    27    17    1
     4    17    18    2
     5    17    19   am
     6    19    20    1
     7    20    21    1
     8    21    22    1
     9    23    22    1
    10    23    24    1
    11    24    25    1
    12    25    16    1
    13    16     1    1
    14     1     2    1
    15     2     3    1
    16     3     4    1
    17     4     6    1
    18     6     7   am
    19     7     8    2
    20     7     9    1
    21     9    10    1
    22    10    11   ar
    23    11    12   ar
    24    12    13   ar
    25    13    14   ar
    26    14    15   ar
    27     4     5    1
    28    25    26    1
    29    23    19    1
    30     5     1    1
    31    26    20    1
    32    15     6    1
    33    15    10   ar
@<TRIPOS>MOLECULE
*****
 29 33 0 0 0
SMALL
GASTEIGER

@<TRIPOS>ATOM
      1 N         138.4658  140.8857  164.1163 N.3     1  UNL1       -0.2712
      2 C         138.6295  139.3970  164.2003 C.3     1  UNL1        0.0739
      3 C         139.1737  139.0665  165.5585 C.3     1  UNL1        0.0389
      4 C         139.3462  140.3508  166.3139 C.3     1  UNL1        0.0971
      5 C         138.9087  141.4752  165.4226 C.3     1  UNL1        0.0925
      6 N         139.8652  140.4870  167.7147 N.am    1  UNL1       -0.2589
      7 C         139.1891  139.9891  168.9576 C.2     1  UNL1        0.2338
      8 O         137.8753  139.2677  169.0181 O.2     1  UNL1       -0.2742
      9 C         140.0574  140.3393  170.1295 C.3     1  UNL1        0.1131
     10 C         141.2702  141.0536  169.6108 C.ar    1  UNL1        0.0007
     11 C         142.4673  141.6327  170.3047 C.ar    1  UNL1       -0.0026
     12 C         143.5456  142.3031  169.5061 C.ar    1  UNL1       -0.0002
     13 C         143.4268  142.3943  168.0136 C.ar    1  UNL1        0.0013
     14 C         142.2297  141.8152  167.3197 C.ar    1  UNL1        0.0146
     15 C         141.1514  141.1448  168.1183 C.ar    1  UNL1        0.0503
     16 C         137.9497  141.6507  162.9337 C.3     1  UNL1        0.0722
     17 C         138.4177  141.3764  161.6745 C.2     1  UNL1        0.4048
     18 O         137.2807  140.6376  162.3162 O.2     1  UNL1       -0.2262
     19 N         138.8648  141.0092  160.2906 N.am    1  UNL1       -0.2493
     20 C         139.9808  141.6549  159.5242 C.3     1  UNL1        0.0786
     21 C         140.0802  140.9766  158.1900 C.3     1  UNL1        0.0216
     22 C         139.0255  139.9115  158.1319 C.3     1  UNL1        0.0216
     23 C         138.2744  139.9316  159.4301 C.3     1  UNL1        0.0786
     24 C         137.7070  140.1774  160.8074 C.3     1  UNL1        0.0214
     25 C         138.3968  141.2834  161.5497 C.3     1  UNL1        0.0193
     26 C         139.5337  142.0222  160.9081 C.3     1  UNL1        0.0214
     27 O         139.1075  142.4824  162.4168 O.3     1  UNL1       -0.4345
     28 C         139.2549  144.9875  163.0894 C.3     1  UNL1        0.0513
     29 C         138.6170  143.8938  162.2852 C.3     1  UNL1        0.2102
@<TRIPOS>BOND
     1    28    29    1
     2    29    27    1
     3    27    17    1
     4    17    18    2
     5    17    19   am
     6    19    20    1
     7    20    21    1
     8    21    22    1
     9    23    22    1
    10    23    24    1
    11    24    25    1
    12    25    16    1
    13    16     1    1
    14     1     2    1
    15     2     3    1
    16     3     4    1
    17     4     6    1
    18     6     7   am
    19     7     8    2
    20     7     9    1
    21     9    10    1
    22    10    11   ar
    23    11    12   ar
    24    12    13   ar
    25    13    14   ar
    26    14    15   ar
    27     4     5    1
    28    25    26    1
    29    23    19    1
    30     5     1    1
    31    26    20    1
    32    15     6    1
    33    15    10   ar
