@<TRIPOS>MOLECULE
*****
 43 47 0 0 0
SMALL
GASTEIGER

@<TRIPOS>ATOM
      1 C         139.1749  139.3891  159.1295 C.1     1  UNL1       -0.0585
      2 C         138.9024  139.7888  160.5494 C.1     1  UNL1       -0.0386
      3 C         138.6300  140.1885  161.9693 C.ar    1  UNL1        0.1481
      4 N         138.6140  139.2711  163.1559 N.ar    1  UNL1       -0.1595
      5 N         138.2999  140.0915  164.3718 N.ar    1  UNL1       -0.2334
      6 C         138.1218  141.5159  163.9366 C.ar    1  UNL1        0.1659
      7 N         137.8002  142.7660  164.7006 N.ar    1  UNL1       -0.2050
      8 C         137.6827  144.0761  163.9797 C.ar    1  UNL1        0.2014
      9 N         137.8867  144.1361  162.4949 N.ar    1  UNL1       -0.2093
     10 C         138.2083  142.8860  161.7309 C.ar    1  UNL1        0.1322
     11 N         138.4123  142.9460  160.2461 N.pl3   1  UNL1       -0.3424
     12 C         138.3258  141.5759  162.4518 C.ar    1  UNL1        0.0938
     13 H         138.3352  143.8059  159.7729 H       1  UNL1        0.1437
     14 H         138.6234  142.1255  159.7446 H       1  UNL1        0.1437
     15 C         138.1842  139.5777  165.7763 C.3     1  UNL1        0.1292
     16 C         139.3315  139.7356  166.7296 C.3     1  UNL1        0.0272
     17 C         140.7403  139.7350  166.2144 C.3     1  UNL1        0.0194
     18 C         141.8876  139.8929  167.1676 C.3     1  UNL1        0.0722
     19 N         141.6261  140.0515  168.6361 N.3     1  UNL1       -0.2715
     20 C         142.7734  140.2095  169.5894 C.3     1  UNL1        0.0896
     21 C         140.2174  140.0522  169.1513 C.3     1  UNL1        0.0722
     22 C         139.0701  139.8942  168.1981 C.3     1  UNL1        0.0194
     23 C         138.6736  141.3342  156.9012 C.3     1  UNL1        0.0317
     24 C         139.1966  139.9620  156.5955 C.ar    1  UNL1       -0.0141
     25 C         139.4690  139.5623  155.1757 C.ar    1  UNL1       -0.0024
     26 C         139.9920  138.1901  154.8699 C.ar    1  UNL1        0.0144
     27 C         140.2427  137.2175  155.9840 C.ar    1  UNL1        0.0511
     28 C         139.9703  137.6172  157.4039 C.ar    1  UNL1        0.0226
     29 C         139.4473  138.9894  157.7096 C.ar    1  UNL1        0.0393
     30 N         140.7657  135.8453  155.6783 N.am    1  UNL1       -0.2804
     31 C         142.1604  135.4674  156.0807 C.2     1  UNL1        0.2495
     32 O         143.0321  136.4618  156.7888 O.2     1  UNL1       -0.2698
     33 H         140.1936  135.1927  155.2136 H       1  UNL1        0.1552
     34 C         142.6835  134.0952  155.7750 C.ar    1  UNL1        0.0536
     35 C         142.4852  133.5037  154.4110 C.ar    1  UNL1        0.0045
     36 C         143.0083  132.1315  154.1053 C.ar    1  UNL1        0.0001
     37 C         143.7296  131.3507  155.1637 C.ar    1  UNL1        0.0039
     38 C         143.9279  131.9422  156.5278 C.ar    1  UNL1        0.0716
     39 C         143.4048  133.3145  156.8334 C.ar    1  UNL1        0.0084
     40 C         144.6491  131.1616  157.5862 C.3     1  UNL1        0.4186
     41 F         145.3703  130.3809  158.6447 F       1  UNL1       -0.1659
     42 F         143.6390  130.0597  157.4618 F       1  UNL1       -0.1659
     43 F         145.6593  132.2635  157.7107 F       1  UNL1       -0.1659
@<TRIPOS>BOND
     1    23    24    1
     2    24    25   ar
     3    25    26   ar
     4    26    27   ar
     5    27    30    1
     6    30    31   am
     7    31    32    2
     8    31    34    1
     9    34    35   ar
    10    35    36   ar
    11    36    37   ar
    12    37    38   ar
    13    38    40    1
    14    40    41    1
    15    40    42    1
    16    40    43    1
    17    38    39   ar
    18    27    28   ar
    19    28    29   ar
    20    29     1    1
    21     1     2    3
    22     2     3    1
    23     3     4   ar
    24     4     5   ar
    25     5    15    1
    26    15    16    1
    27    16    17    1
    28    17    18    1
    29    18    19    1
    30    19    20    1
    31    19    21    1
    32    21    22    1
    33     5     6   ar
    34     6     7   ar
    35     7     8   ar
    36     8     9   ar
    37     9    10   ar
    38    10    11    1
    39    10    12   ar
    40    29    24   ar
    41    12     3   ar
    42    39    34   ar
    43    22    16    1
    44    12     6   ar
    45    30    33    1
    46    11    13    1
    47    11    14    1
@<TRIPOS>MOLECULE
*****
 43 47 0 0 0
SMALL
GASTEIGER

@<TRIPOS>ATOM
      1 C         140.0351  140.5380  159.6771 C.1     1  UNL1       -0.0585
      2 C         140.3653  141.1860  160.9890 C.1     1  UNL1       -0.0386
      3 C         140.6955  141.8340  162.3010 C.ar    1  UNL1        0.1481
      4 N         141.9458  141.6179  163.1011 N.ar    1  UNL1       -0.1595
      5 N         141.8563  142.4622  164.3377 N.ar    1  UNL1       -0.2334
      6 C         140.5508  143.2001  164.3018 C.ar    1  UNL1        0.1659
      7 N         139.9227  144.1753  165.2527 N.ar    1  UNL1       -0.2050
      8 C         138.5771  144.7623  164.9448 C.ar    1  UNL1        0.2014
      9 N         137.8596  144.3740  163.6861 N.ar    1  UNL1       -0.2093
     10 C         138.4878  143.3987  162.7351 C.ar    1  UNL1        0.1322
     11 N         137.7704  143.0104  161.4764 N.pl3   1  UNL1       -0.3424
     12 C         139.8334  142.8118  163.0430 C.ar    1  UNL1        0.0938
     13 H         136.8872  143.3957  161.2743 H       1  UNL1        0.1437
     14 H         138.1827  142.3703  160.8523 H       1  UNL1        0.1437
     15 C         142.8908  142.5528  165.4201 C.3     1  UNL1        0.1292
     16 C         142.8477  141.6027  166.5802 C.3     1  UNL1        0.0272
     17 C         142.8369  140.1226  166.3373 C.3     1  UNL1        0.0194
     18 C         142.7938  139.1725  167.4973 C.3     1  UNL1        0.0722
     19 N         142.7615  139.7027  168.9001 N.3     1  UNL1       -0.2715
     20 C         142.7183  138.7527  170.0601 C.3     1  UNL1        0.0896
     21 C         142.7722  141.1828  169.1429 C.3     1  UNL1        0.0722
     22 C         142.8153  142.1329  167.9830 C.3     1  UNL1        0.0194
     23 C         138.2665  141.9517  157.7090 C.3     1  UNL1        0.0317
     24 C         138.8206  140.5969  157.3812 C.ar    1  UNL1       -0.0141
     25 C         138.4904  139.9489  156.0693 C.ar    1  UNL1       -0.0024
     26 C         139.0445  138.5942  155.7414 C.ar    1  UNL1        0.0144
     27 C         139.9288  137.8872  156.7255 C.ar    1  UNL1        0.0511
     28 C         140.2590  138.5352  158.0374 C.ar    1  UNL1        0.0226
     29 C         139.7049  139.8900  158.3652 C.ar    1  UNL1        0.0393
     30 N         140.4829  136.5324  156.3976 N.am    1  UNL1       -0.2804
     31 C         141.9447  136.3714  156.1024 C.2     1  UNL1        0.2495
     32 O         142.8524  137.5651  156.1350 O.2     1  UNL1       -0.2698
     33 H         139.8871  135.7490  156.3762 H       1  UNL1        0.1552
     34 C         142.4988  135.0166  155.7746 C.ar    1  UNL1        0.0536
     35 C         142.1262  134.3456  154.4859 C.ar    1  UNL1        0.0045
     36 C         142.6802  132.9908  154.1581 C.ar    1  UNL1        0.0001
     37 C         143.6070  132.3069  155.1190 C.ar    1  UNL1        0.0039
     38 C         143.9796  132.9778  156.4078 C.ar    1  UNL1        0.0716
     39 C         143.4255  134.3327  156.7356 C.ar    1  UNL1        0.0084
     40 C         144.9063  132.2940  157.3688 C.3     1  UNL1        0.4186
     41 F         145.8331  131.6101  158.3298 F       1  UNL1       -0.1659
     42 F         145.1245  131.1923  156.3745 F       1  UNL1       -0.1659
     43 F         144.6883  133.3957  158.3632 F       1  UNL1       -0.1659
@<TRIPOS>BOND
     1    23    24    1
     2    24    25   ar
     3    25    26   ar
     4    26    27   ar
     5    27    30    1
     6    30    31   am
     7    31    32    2
     8    31    34    1
     9    34    35   ar
    10    35    36   ar
    11    36    37   ar
    12    37    38   ar
    13    38    40    1
    14    40    41    1
    15    40    42    1
    16    40    43    1
    17    38    39   ar
    18    27    28   ar
    19    28    29   ar
    20    29     1    1
    21     1     2    3
    22     2     3    1
    23     3     4   ar
    24     4     5   ar
    25     5    15    1
    26    15    16    1
    27    16    17    1
    28    17    18    1
    29    18    19    1
    30    19    20    1
    31    19    21    1
    32    21    22    1
    33     5     6   ar
    34     6     7   ar
    35     7     8   ar
    36     8     9   ar
    37     9    10   ar
    38    10    11    1
    39    10    12   ar
    40    29    24   ar
    41    12     3   ar
    42    39    34   ar
    43    22    16    1
    44    12     6   ar
    45    30    33    1
    46    11    13    1
    47    11    14    1
@<TRIPOS>MOLECULE
*****
 43 47 0 0 0
SMALL
GASTEIGER

@<TRIPOS>ATOM
      1 C         143.1907  139.6561  159.9156 C.1     1  UNL1       -0.0585
      2 C         142.7966  138.6780  158.8487 C.1     1  UNL1       -0.0386
      3 C         142.4025  137.7001  157.7818 C.ar    1  UNL1        0.1481
      4 N         143.2291  136.5479  157.2930 N.ar    1  UNL1       -0.1595
      5 N         142.4500  135.8384  156.2255 N.ar    1  UNL1       -0.2334
      6 C         141.1419  136.5522  156.0545 C.ar    1  UNL1        0.1659
      7 N         139.9737  136.3030  155.1472 N.ar    1  UNL1       -0.2050
      8 C         138.7761  137.2045  155.2018 C.ar    1  UNL1        0.2014
      9 N         138.7467  138.3552  156.1637 N.ar    1  UNL1       -0.2093
     10 C         139.9149  138.6043  157.0709 C.ar    1  UNL1        0.1322
     11 N         139.8855  139.7549  158.0328 N.pl3   1  UNL1       -0.3424
     12 C         141.1125  137.7028  157.0163 C.ar    1  UNL1        0.0938
     13 H         139.0994  140.3466  158.0686 H       1  UNL1        0.1437
     14 H         140.6522  139.9184  158.6283 H       1  UNL1        0.1437
     15 C         142.9000  134.6277  155.4628 C.3     1  UNL1        0.1292
     16 C         143.2978  133.3826  156.1989 C.3     1  UNL1        0.0272
     17 C         144.5107  133.3881  157.0813 C.3     1  UNL1        0.0194
     18 C         144.9085  132.1432  157.8173 C.3     1  UNL1        0.0722
     19 N         144.0932  130.8926  157.6709 N.3     1  UNL1       -0.2715
     20 C         144.4909  129.6476  158.4070 C.3     1  UNL1        0.0896
     21 C         142.8803  130.8871  156.7885 C.3     1  UNL1        0.0722
     22 C         142.4825  132.1320  156.0525 C.3     1  UNL1        0.0194
     23 C         144.4874  142.2547  159.1635 C.3     1  UNL1        0.0317
     24 C         144.2331  141.9333  160.6064 C.ar    1  UNL1       -0.0141
     25 C         144.6273  142.9112  161.6734 C.ar    1  UNL1       -0.0024
     26 C         144.3731  142.5899  163.1162 C.ar    1  UNL1        0.0144
     27 C         143.7247  141.2906  163.4924 C.ar    1  UNL1        0.0511
     28 C         143.3306  140.3126  162.4255 C.ar    1  UNL1        0.0226
     29 C         143.5848  140.6340  160.9825 C.ar    1  UNL1        0.0393
     30 N         143.4705  140.9692  164.9353 N.am    1  UNL1       -0.2804
     31 C         142.2750  141.5471  165.6330 C.2     1  UNL1        0.2495
     32 O         141.3337  142.4464  164.8878 O.2     1  UNL1       -0.2698
     33 H         144.0882  140.3790  165.4244 H       1  UNL1        0.1552
     34 C         142.0208  141.2257  167.0760 C.ar    1  UNL1        0.0536
     35 C         142.5948  139.9780  167.6789 C.ar    1  UNL1        0.0045
     36 C         142.3405  139.6566  169.1218 C.ar    1  UNL1        0.0001
     37 C         141.5123  140.5830  169.9619 C.ar    1  UNL1        0.0039
     38 C         140.9382  141.8308  169.3591 C.ar    1  UNL1        0.0716
     39 C         141.1925  142.1521  167.9160 C.ar    1  UNL1        0.0084
     40 C         140.1100  142.7573  170.1990 C.3     1  UNL1        0.4186
     41 F         139.2818  143.6838  171.0390 F       1  UNL1       -0.1659
     42 F         141.1928  143.7927  170.1246 F       1  UNL1       -0.1659
     43 F         139.0271  141.7219  170.2734 F       1  UNL1       -0.1659
@<TRIPOS>BOND
     1    23    24    1
     2    24    25   ar
     3    25    26   ar
     4    26    27   ar
     5    27    30    1
     6    30    31   am
     7    31    32    2
     8    31    34    1
     9    34    35   ar
    10    35    36   ar
    11    36    37   ar
    12    37    38   ar
    13    38    40    1
    14    40    41    1
    15    40    42    1
    16    40    43    1
    17    38    39   ar
    18    27    28   ar
    19    28    29   ar
    20    29     1    1
    21     1     2    3
    22     2     3    1
    23     3     4   ar
    24     4     5   ar
    25     5    15    1
    26    15    16    1
    27    16    17    1
    28    17    18    1
    29    18    19    1
    30    19    20    1
    31    19    21    1
    32    21    22    1
    33     5     6   ar
    34     6     7   ar
    35     7     8   ar
    36     8     9   ar
    37     9    10   ar
    38    10    11    1
    39    10    12   ar
    40    29    24   ar
    41    12     3   ar
    42    39    34   ar
    43    22    16    1
    44    12     6   ar
    45    30    33    1
    46    11    13    1
    47    11    14    1
@<TRIPOS>MOLECULE
*****
 43 47 0 0 0
SMALL
GASTEIGER

@<TRIPOS>ATOM
      1 C         140.5276  140.4091  160.1727 C.1     1  UNL1       -0.0585
      2 C         141.1365  139.5687  159.0896 C.1     1  UNL1       -0.0386
      3 C         141.7453  138.7284  158.0065 C.ar    1  UNL1        0.1481
      4 N         141.2072  137.4254  157.4939 N.ar    1  UNL1       -0.1595
      5 N         142.1285  136.9353  156.4164 N.ar    1  UNL1       -0.2334
      6 C         143.2359  137.9354  156.2630 C.ar    1  UNL1        0.1659
      7 N         144.4293  137.9801  155.3554 N.ar    1  UNL1       -0.2050
      8 C         145.3859  139.1330  155.4306 C.ar    1  UNL1        0.2014
      9 N         145.1490  140.2412  156.4133 N.ar    1  UNL1       -0.2093
     10 C         143.9556  140.1965  157.3209 C.ar    1  UNL1        0.1322
     11 N         143.7188  141.3047  158.3036 N.pl3   1  UNL1       -0.3424
     12 C         142.9990  139.0436  157.2457 C.ar    1  UNL1        0.0938
     13 H         144.3466  142.0615  158.3529 H       1  UNL1        0.1437
     14 H         142.9355  141.2754  158.8993 H       1  UNL1        0.1437
     15 C         141.9702  135.6677  155.6303 C.3     1  UNL1        0.1292
     16 C         142.5473  134.3849  156.1515 C.3     1  UNL1        0.0272
     17 C         143.7299  134.4146  157.0736 C.3     1  UNL1        0.0194
     18 C         144.3071  133.1319  157.5948 C.3     1  UNL1        0.0722
     19 N         143.7015  131.8195  157.1938 N.3     1  UNL1       -0.2715
     20 C         144.2785  130.5368  157.7149 C.3     1  UNL1        0.0896
     21 C         142.5188  131.7898  156.2716 C.3     1  UNL1        0.0722
     22 C         141.9417  133.0724  155.7504 C.3     1  UNL1        0.0194
     23 C         138.3085  142.3196  159.5204 C.3     1  UNL1        0.0317
     24 C         138.8092  142.2046  160.9297 C.ar    1  UNL1       -0.0141
     25 C         138.2004  143.0450  162.0128 C.ar    1  UNL1       -0.0024
     26 C         138.7011  142.9301  163.4220 C.ar    1  UNL1        0.0144
     27 C         139.8107  141.9748  163.7483 C.ar    1  UNL1        0.0511
     28 C         140.4195  141.1345  162.6651 C.ar    1  UNL1        0.0226
     29 C         139.9187  141.2494  161.2559 C.ar    1  UNL1        0.0393
     30 N         140.3114  141.8599  165.1576 N.am    1  UNL1       -0.2804
     31 C         139.6426  140.9206  166.1169 C.2     1  UNL1        0.2495
     32 O         138.4730  140.0962  165.6669 O.2     1  UNL1       -0.2698
     33 H         141.0790  142.4010  165.4529 H       1  UNL1        0.1552
     34 C         140.1433  140.8057  167.5261 C.ar    1  UNL1        0.0536
     35 C         139.2889  140.1581  168.5752 C.ar    1  UNL1        0.0045
     36 C         139.7896  140.0432  169.9845 C.ar    1  UNL1        0.0001
     37 C         141.1448  140.5758  170.3447 C.ar    1  UNL1        0.0039
     38 C         141.9993  141.2234  169.2957 C.ar    1  UNL1        0.0716
     39 C         141.4985  141.3383  167.8863 C.ar    1  UNL1        0.0084
     40 C         143.3545  141.7561  169.6557 C.3     1  UNL1        0.4186
     41 F         144.7097  142.2888  170.0157 F       1  UNL1       -0.1659
     42 F         143.1923  142.8521  168.6445 F       1  UNL1       -0.1659
     43 F         143.5167  140.6601  170.6670 F       1  UNL1       -0.1659
@<TRIPOS>BOND
     1    23    24    1
     2    24    25   ar
     3    25    26   ar
     4    26    27   ar
     5    27    30    1
     6    30    31   am
     7    31    32    2
     8    31    34    1
     9    34    35   ar
    10    35    36   ar
    11    36    37   ar
    12    37    38   ar
    13    38    40    1
    14    40    41    1
    15    40    42    1
    16    40    43    1
    17    38    39   ar
    18    27    28   ar
    19    28    29   ar
    20    29     1    1
    21     1     2    3
    22     2     3    1
    23     3     4   ar
    24     4     5   ar
    25     5    15    1
    26    15    16    1
    27    16    17    1
    28    17    18    1
    29    18    19    1
    30    19    20    1
    31    19    21    1
    32    21    22    1
    33     5     6   ar
    34     6     7   ar
    35     7     8   ar
    36     8     9   ar
    37     9    10   ar
    38    10    11    1
    39    10    12   ar
    40    29    24   ar
    41    12     3   ar
    42    39    34   ar
    43    22    16    1
    44    12     6   ar
    45    30    33    1
    46    11    13    1
    47    11    14    1
@<TRIPOS>MOLECULE
*****
 43 47 0 0 0
SMALL
GASTEIGER

@<TRIPOS>ATOM
      1 C         140.4646  139.3568  159.9208 C.1     1  UNL1       -0.0585
      2 C         141.2919  138.7510  158.8259 C.1     1  UNL1       -0.0386
      3 C         142.1190  138.1453  157.7309 C.ar    1  UNL1        0.1481
      4 N         141.8980  136.8032  157.0986 N.ar    1  UNL1       -0.1595
      5 N         142.9547  136.6038  156.0529 N.ar    1  UNL1       -0.2334
      6 C         143.8288  137.8227  156.0389 C.ar    1  UNL1        0.1659
      7 N         145.0284  138.1882  155.2158 N.ar    1  UNL1       -0.2050
      8 C         145.7114  139.5063  155.4298 C.ar    1  UNL1        0.2014
      9 N         145.1949  140.4591  156.4669 N.ar    1  UNL1       -0.2093
     10 C         143.9953  140.0936  157.2900 C.ar    1  UNL1        0.1322
     11 N         143.4788  141.0463  158.3270 N.pl3   1  UNL1       -0.3424
     12 C         143.3123  138.7754  157.0760 C.ar    1  UNL1        0.0938
     13 H         143.9271  141.9115  158.4675 H       1  UNL1        0.1437
     14 H         142.6915  140.8065  158.8672 H       1  UNL1        0.1437
     15 C         143.1101  135.3973  155.1752 C.3     1  UNL1        0.1292
     16 C         143.2066  134.0315  155.7880 C.3     1  UNL1        0.0272
     17 C         142.3647  132.9097  155.2563 C.3     1  UNL1        0.0194
     18 C         142.4612  131.5440  155.8689 C.3     1  UNL1        0.0722
     19 N         143.3996  131.3000  157.0134 N.3     1  UNL1       -0.2715
     20 C         143.4962  129.9343  157.6261 C.3     1  UNL1        0.0896
     21 C         144.2416  132.4218  157.5451 C.3     1  UNL1        0.0722
     22 C         144.1451  133.7875  156.9325 C.3     1  UNL1        0.0194
     23 C         137.6524  140.2397  159.3628 C.3     1  UNL1        0.0317
     24 C         138.2314  140.4040  160.7368 C.ar    1  UNL1       -0.0141
     25 C         137.4043  141.0097  161.8317 C.ar    1  UNL1       -0.0024
     26 C         137.9832  141.1740  163.2056 C.ar    1  UNL1        0.0144
     27 C         139.3894  140.7325  163.4847 C.ar    1  UNL1        0.0511
     28 C         140.2166  140.1267  162.3897 C.ar    1  UNL1        0.0226
     29 C         139.6375  139.9625  161.0158 C.ar    1  UNL1        0.0393
     30 N         139.9685  140.8967  164.8587 N.am    1  UNL1       -0.2804
     31 C         140.7009  142.1553  165.2183 C.2     1  UNL1        0.2495
     32 O         140.8543  143.2497  164.2040 O.2     1  UNL1       -0.2698
     33 H         139.8678  140.1784  165.5244 H       1  UNL1        0.1552
     34 C         141.2799  142.3196  166.5923 C.ar    1  UNL1        0.0536
     35 C         142.7492  142.1174  166.8161 C.ar    1  UNL1        0.0045
     36 C         143.3283  142.2816  168.1900 C.ar    1  UNL1        0.0001
     37 C         142.4379  142.6481  169.3403 C.ar    1  UNL1        0.0039
     38 C         140.9686  142.8503  169.1165 C.ar    1  UNL1        0.0716
     39 C         140.3896  142.6861  167.7425 C.ar    1  UNL1        0.0084
     40 C         140.0782  143.2168  170.2666 C.3     1  UNL1        0.4186
     41 F         139.1877  143.5831  171.4168 F       1  UNL1       -0.1659
     42 F         139.8548  141.7622  170.5571 F       1  UNL1       -0.1659
     43 F         140.3016  144.6714  169.9762 F       1  UNL1       -0.1659
@<TRIPOS>BOND
     1    23    24    1
     2    24    25   ar
     3    25    26   ar
     4    26    27   ar
     5    27    30    1
     6    30    31   am
     7    31    32    2
     8    31    34    1
     9    34    35   ar
    10    35    36   ar
    11    36    37   ar
    12    37    38   ar
    13    38    40    1
    14    40    41    1
    15    40    42    1
    16    40    43    1
    17    38    39   ar
    18    27    28   ar
    19    28    29   ar
    20    29     1    1
    21     1     2    3
    22     2     3    1
    23     3     4   ar
    24     4     5   ar
    25     5    15    1
    26    15    16    1
    27    16    17    1
    28    17    18    1
    29    18    19    1
    30    19    20    1
    31    19    21    1
    32    21    22    1
    33     5     6   ar
    34     6     7   ar
    35     7     8   ar
    36     8     9   ar
    37     9    10   ar
    38    10    11    1
    39    10    12   ar
    40    29    24   ar
    41    12     3   ar
    42    39    34   ar
    43    22    16    1
    44    12     6   ar
    45    30    33    1
    46    11    13    1
    47    11    14    1
@<TRIPOS>MOLECULE
*****
 43 47 0 0 0
SMALL
GASTEIGER

@<TRIPOS>ATOM
      1 C         139.4131  139.6202  159.3505 C.1     1  UNL1       -0.0585
      2 C         139.4543  140.0568  160.7850 C.1     1  UNL1       -0.0386
      3 C         139.4956  140.4935  162.2194 C.ar    1  UNL1        0.1481
      4 N         139.8891  141.8530  162.7162 N.ar    1  UNL1       -0.1595
      5 N         139.7874  141.8469  164.2127 N.ar    1  UNL1       -0.2334
      6 C         139.3309  140.4837  164.6408 C.ar    1  UNL1        0.1659
      7 N         139.0562  139.8960  165.9933 N.ar    1  UNL1       -0.2050
      8 C         138.6011  138.4718  166.1137 C.ar    1  UNL1        0.2014
      9 N         138.4208  137.6353  164.8817 N.ar    1  UNL1       -0.2093
     10 C         138.6955  138.2230  163.5293 C.ar    1  UNL1        0.1322
     11 N         138.5152  137.3865  162.2974 N.pl3   1  UNL1       -0.3424
     12 C         139.1506  139.6472  163.4089 C.ar    1  UNL1        0.0938
     13 H         138.2165  136.4517  162.3764 H       1  UNL1        0.1437
     14 H         138.6955  137.7722  161.4097 H       1  UNL1        0.1437
     15 C         140.0891  143.0014  165.1216 C.3     1  UNL1        0.1292
     16 C         140.9892  142.8083  166.3060 C.3     1  UNL1        0.0272
     17 C         142.4510  142.5415  166.1015 C.3     1  UNL1        0.0194
     18 C         143.3511  142.3484  167.2857 C.3     1  UNL1        0.0722
     19 N         142.7893  142.4220  168.6746 N.3     1  UNL1       -0.2715
     20 C         143.6893  142.2288  169.8589 C.3     1  UNL1        0.0896
     21 C         141.3274  142.6887  168.8791 C.3     1  UNL1        0.0722
     22 C         140.4273  142.8819  167.6949 C.3     1  UNL1        0.0194
     23 C         138.3110  141.4608  157.2535 C.3     1  UNL1        0.0317
     24 C         138.8207  140.1039  156.8676 C.ar    1  UNL1       -0.0141
     25 C         138.7794  139.6672  155.4331 C.ar    1  UNL1       -0.0024
     26 C         139.2891  138.3104  155.0471 C.ar    1  UNL1        0.0144
     27 C         139.8402  137.3900  156.0956 C.ar    1  UNL1        0.0511
     28 C         139.8815  137.8266  157.5301 C.ar    1  UNL1        0.0226
     29 C         139.3718  139.1835  157.9160 C.ar    1  UNL1        0.0393
     30 N         140.3499  136.0331  155.7097 N.am    1  UNL1       -0.2804
     31 C         141.8117  135.7189  155.8300 C.2     1  UNL1        0.2495
     32 O         142.7638  136.7617  156.3362 O.2     1  UNL1       -0.2698
     33 H         139.7251  135.3487  155.3775 H       1  UNL1        0.1552
     34 C         142.3214  134.3620  155.4441 C.ar    1  UNL1        0.0536
     35 C         142.0722  133.8320  154.0632 C.ar    1  UNL1        0.0045
     36 C         142.5819  132.4751  153.6773 C.ar    1  UNL1        0.0001
     37 C         143.3409  131.6481  154.6723 C.ar    1  UNL1        0.0039
     38 C         143.5902  132.1780  156.0532 C.ar    1  UNL1        0.0716
     39 C         143.0804  133.5350  156.4391 C.ar    1  UNL1        0.0084
     40 C         144.3491  131.3512  157.0483 C.3     1  UNL1        0.4186
     41 F         145.1080  130.5242  158.0434 F       1  UNL1       -0.1659
     42 F         143.0573  130.8030  157.5781 F       1  UNL1       -0.1659
     43 F         145.6410  131.8993  156.5186 F       1  UNL1       -0.1659
@<TRIPOS>BOND
     1    23    24    1
     2    24    25   ar
     3    25    26   ar
     4    26    27   ar
     5    27    30    1
     6    30    31   am
     7    31    32    2
     8    31    34    1
     9    34    35   ar
    10    35    36   ar
    11    36    37   ar
    12    37    38   ar
    13    38    40    1
    14    40    41    1
    15    40    42    1
    16    40    43    1
    17    38    39   ar
    18    27    28   ar
    19    28    29   ar
    20    29     1    1
    21     1     2    3
    22     2     3    1
    23     3     4   ar
    24     4     5   ar
    25     5    15    1
    26    15    16    1
    27    16    17    1
    28    17    18    1
    29    18    19    1
    30    19    20    1
    31    19    21    1
    32    21    22    1
    33     5     6   ar
    34     6     7   ar
    35     7     8   ar
    36     8     9   ar
    37     9    10   ar
    38    10    11    1
    39    10    12   ar
    40    29    24   ar
    41    12     3   ar
    42    39    34   ar
    43    22    16    1
    44    12     6   ar
    45    30    33    1
    46    11    13    1
    47    11    14    1
@<TRIPOS>MOLECULE
*****
 43 47 0 0 0
SMALL
GASTEIGER

@<TRIPOS>ATOM
      1 C         139.9754  140.6114  159.5765 C.1     1  UNL1       -0.0585
      2 C         140.2969  141.2945  160.8727 C.1     1  UNL1       -0.0386
      3 C         140.6183  141.9775  162.1689 C.ar    1  UNL1        0.1481
      4 N         139.8615  141.8286  163.4554 N.ar    1  UNL1       -0.1595
      5 N         140.5285  142.6884  164.4877 N.ar    1  UNL1       -0.2334
      6 C         141.6976  143.3687  163.8393 C.ar    1  UNL1        0.1659
      7 N         142.7187  144.3315  164.3688 N.ar    1  UNL1       -0.2050
      8 C         143.7954  144.8549  163.4650 C.ar    1  UNL1        0.2014
      9 N         143.8509  144.4156  162.0319 N.ar    1  UNL1       -0.2093
     10 C         142.8298  143.4528  161.5025 C.ar    1  UNL1        0.1322
     11 N         142.8853  143.0134  160.0694 N.pl3   1  UNL1       -0.3424
     12 C         141.7531  142.9294  162.4062 C.ar    1  UNL1        0.0938
     13 H         143.5920  143.3570  159.4762 H       1  UNL1        0.1437
     14 H         142.2151  142.3815  159.7219 H       1  UNL1        0.1437
     15 C         140.1014  142.8412  165.9175 C.3     1  UNL1        0.1292
     16 C         140.6938  141.9581  166.9757 C.3     1  UNL1        0.0272
     17 C         139.8646  140.8746  167.5989 C.3     1  UNL1        0.0194
     18 C         140.4569  139.9916  168.6569 C.3     1  UNL1        0.0722
     19 N         141.8784  140.1922  169.0918 N.3     1  UNL1       -0.2715
     20 C         142.4707  139.3093  170.1498 C.3     1  UNL1        0.0896
     21 C         142.7075  141.2758  168.4685 C.3     1  UNL1        0.0722
     22 C         142.1153  142.1587  167.4105 C.3     1  UNL1        0.0194
     23 C         138.1935  141.9575  157.5734 C.3     1  UNL1        0.0317
     24 C         138.7630  140.6015  157.2788 C.ar    1  UNL1       -0.0141
     25 C         138.4416  139.9185  155.9825 C.ar    1  UNL1       -0.0024
     26 C         139.0111  138.5625  155.6879 C.ar    1  UNL1        0.0144
     27 C         139.9021  137.8894  156.6894 C.ar    1  UNL1        0.0511
     28 C         140.2235  138.5724  157.9857 C.ar    1  UNL1        0.0226
     29 C         139.6540  139.9284  158.2803 C.ar    1  UNL1        0.0393
     30 N         140.4716  136.5333  156.3948 N.am    1  UNL1       -0.2804
     31 C         141.9207  136.3906  156.0346 C.2     1  UNL1        0.2495
     32 O         142.8002  137.6039  155.9689 O.2     1  UNL1       -0.2698
     33 H         139.8943  135.7370  156.4379 H       1  UNL1        0.1552
     34 C         142.4902  135.0346  155.7399 C.ar    1  UNL1        0.0536
     35 C         142.1175  134.3237  154.4728 C.ar    1  UNL1        0.0045
     36 C         142.6870  132.9677  154.1782 C.ar    1  UNL1        0.0001
     37 C         143.6293  132.3225  155.1507 C.ar    1  UNL1        0.0039
     38 C         144.0021  133.0333  156.4179 C.ar    1  UNL1        0.0716
     39 C         143.4325  134.3894  156.7125 C.ar    1  UNL1        0.0084
     40 C         144.9443  132.3883  157.3905 C.3     1  UNL1        0.4186
     41 F         145.8867  131.7431  158.3630 F       1  UNL1       -0.1659
     42 F         145.2957  131.3530  156.3634 F       1  UNL1       -0.1659
     43 F         144.5930  133.4234  158.4176 F       1  UNL1       -0.1659
@<TRIPOS>BOND
     1    23    24    1
     2    24    25   ar
     3    25    26   ar
     4    26    27   ar
     5    27    30    1
     6    30    31   am
     7    31    32    2
     8    31    34    1
     9    34    35   ar
    10    35    36   ar
    11    36    37   ar
    12    37    38   ar
    13    38    40    1
    14    40    41    1
    15    40    42    1
    16    40    43    1
    17    38    39   ar
    18    27    28   ar
    19    28    29   ar
    20    29     1    1
    21     1     2    3
    22     2     3    1
    23     3     4   ar
    24     4     5   ar
    25     5    15    1
    26    15    16    1
    27    16    17    1
    28    17    18    1
    29    18    19    1
    30    19    20    1
    31    19    21    1
    32    21    22    1
    33     5     6   ar
    34     6     7   ar
    35     7     8   ar
    36     8     9   ar
    37     9    10   ar
    38    10    11    1
    39    10    12   ar
    40    29    24   ar
    41    12     3   ar
    42    39    34   ar
    43    22    16    1
    44    12     6   ar
    45    30    33    1
    46    11    13    1
    47    11    14    1
@<TRIPOS>MOLECULE
*****
 43 47 0 0 0
SMALL
GASTEIGER

@<TRIPOS>ATOM
      1 C         140.4701  139.7869  159.8993 C.1     1  UNL1       -0.0585
      2 C         140.9019  138.8898  158.7773 C.1     1  UNL1       -0.0386
      3 C         141.3339  137.9928  157.6553 C.ar    1  UNL1        0.1481
      4 N         142.5854  137.1667  157.6188 N.ar    1  UNL1       -0.1595
      5 N         142.6151  136.4278  156.3138 N.ar    1  UNL1       -0.2334
      6 C         141.3819  136.7971  155.5438 C.ar    1  UNL1        0.1659
      7 N         140.8778  136.3776  154.1948 N.ar    1  UNL1       -0.2050
      8 C         139.5818  136.9254  153.6749 C.ar    1  UNL1        0.2014
      9 N         138.7900  137.8927  154.5040 N.ar    1  UNL1       -0.2093
     10 C         139.2941  138.3121  155.8530 C.ar    1  UNL1        0.1322
     11 N         138.5023  139.2794  156.6821 N.pl3   1  UNL1       -0.3424
     12 C         140.5901  137.7644  156.3729 C.ar    1  UNL1        0.0938
     13 H         137.6517  139.6389  156.3409 H       1  UNL1        0.1437
     14 H         138.8332  139.5547  157.5675 H       1  UNL1        0.1437
     15 C         143.6893  135.4849  155.8587 C.3     1  UNL1        0.1292
     16 C         143.4526  134.0041  155.8958 C.3     1  UNL1        0.0272
     17 C         142.9012  133.3023  154.6902 C.3     1  UNL1        0.0194
     18 C         142.6645  131.8216  154.7272 C.3     1  UNL1        0.0722
     19 N         142.9793  131.0427  155.9699 N.3     1  UNL1       -0.2715
     20 C         142.7427  129.5619  156.0070 C.3     1  UNL1        0.0896
     21 C         143.5308  131.7445  157.1754 C.3     1  UNL1        0.0722
     22 C         143.7674  133.2252  157.1384 C.3     1  UNL1        0.0194
     23 C         138.8076  142.2164  159.3221 C.3     1  UNL1        0.0317
     24 C         139.2069  141.8986  160.7326 C.ar    1  UNL1       -0.0141
     25 C         138.7750  142.7957  161.8546 C.ar    1  UNL1       -0.0024
     26 C         139.1742  142.4780  163.2651 C.ar    1  UNL1        0.0144
     27 C         140.0056  141.2632  163.5537 C.ar    1  UNL1        0.0511
     28 C         140.4375  140.3661  162.4318 C.ar    1  UNL1        0.0226
     29 C         140.0382  140.6839  161.0213 C.ar    1  UNL1        0.0393
     30 N         140.4049  140.9454  164.9642 N.am    1  UNL1       -0.2804
     31 C         141.7592  141.3469  165.4688 C.2     1  UNL1        0.2495
     32 O         142.7142  142.0661  164.5628 O.2     1  UNL1       -0.2698
     33 H         139.7781  140.4734  165.5588 H       1  UNL1        0.1552
     34 C         142.1586  141.0291  166.8793 C.ar    1  UNL1        0.0536
     35 C         142.1678  139.6062  167.3538 C.ar    1  UNL1        0.0045
     36 C         142.5671  139.2884  168.7643 C.ar    1  UNL1        0.0001
     37 C         142.9573  140.3936  169.7004 C.ar    1  UNL1        0.0039
     38 C         142.9481  141.8166  169.2260 C.ar    1  UNL1        0.0716
     39 C         142.5488  142.1343  167.8154 C.ar    1  UNL1        0.0084
     40 C         143.3383  142.9218  170.1620 C.3     1  UNL1        0.4186
     41 F         143.7283  144.0272  171.0980 F       1  UNL1       -0.1659
     42 F         141.9491  143.4819  170.0796 F       1  UNL1       -0.1659
     43 F         144.7274  142.3619  170.2443 F       1  UNL1       -0.1659
@<TRIPOS>BOND
     1    23    24    1
     2    24    25   ar
     3    25    26   ar
     4    26    27   ar
     5    27    30    1
     6    30    31   am
     7    31    32    2
     8    31    34    1
     9    34    35   ar
    10    35    36   ar
    11    36    37   ar
    12    37    38   ar
    13    38    40    1
    14    40    41    1
    15    40    42    1
    16    40    43    1
    17    38    39   ar
    18    27    28   ar
    19    28    29   ar
    20    29     1    1
    21     1     2    3
    22     2     3    1
    23     3     4   ar
    24     4     5   ar
    25     5    15    1
    26    15    16    1
    27    16    17    1
    28    17    18    1
    29    18    19    1
    30    19    20    1
    31    19    21    1
    32    21    22    1
    33     5     6   ar
    34     6     7   ar
    35     7     8   ar
    36     8     9   ar
    37     9    10   ar
    38    10    11    1
    39    10    12   ar
    40    29    24   ar
    41    12     3   ar
    42    39    34   ar
    43    22    16    1
    44    12     6   ar
    45    30    33    1
    46    11    13    1
    47    11    14    1
@<TRIPOS>MOLECULE
*****
 43 47 0 0 0
SMALL
GASTEIGER

@<TRIPOS>ATOM
      1 C         142.1104  139.8541  159.3401 C.1     1  UNL1       -0.0585
      2 C         141.7354  140.5847  160.5954 C.1     1  UNL1       -0.0386
      3 C         141.3603  141.3153  161.8507 C.ar    1  UNL1        0.1481
      4 N         140.3281  140.8810  162.8486 N.ar    1  UNL1       -0.1595
      5 N         140.2815  141.9057  163.9430 N.ar    1  UNL1       -0.2334
      6 C         141.2850  142.9733  163.6215 C.ar    1  UNL1        0.1659
      7 N         141.6776  144.2306  164.3391 N.ar    1  UNL1       -0.2050
      8 C         142.7371  145.1229  163.7635 C.ar    1  UNL1        0.2014
      9 N         143.4038  144.7580  162.4704 N.ar    1  UNL1       -0.2093
     10 C         143.0111  143.5007  161.7527 C.ar    1  UNL1        0.1322
     11 N         143.6779  143.1358  160.4596 N.pl3   1  UNL1       -0.3424
     12 C         141.9517  142.6084  162.3283 C.ar    1  UNL1        0.0938
     13 H         144.3732  143.7215  160.0818 H       1  UNL1        0.1437
     14 H         143.4201  142.3106  159.9886 H       1  UNL1        0.1437
     15 C         139.3884  141.8693  165.1476 C.3     1  UNL1        0.1292
     16 C         139.9749  141.6434  166.5096 C.3     1  UNL1        0.0272
     17 C         140.1478  140.2471  167.0296 C.3     1  UNL1        0.0194
     18 C         140.7343  140.0211  168.3915 C.3     1  UNL1        0.0722
     19 N         141.1478  141.1916  169.2336 N.3     1  UNL1       -0.2715
     20 C         141.7342  140.9657  170.5956 C.3     1  UNL1        0.0896
     21 C         140.9748  142.5879  168.7137 C.3     1  UNL1        0.0722
     22 C         140.3883  142.8138  167.3517 C.3     1  UNL1        0.0194
     23 C         142.5801  141.3797  156.8002 C.3     1  UNL1        0.0317
     24 C         142.7203  139.8864  156.8149 C.ar    1  UNL1       -0.0141
     25 C         143.0953  139.1558  155.5597 C.ar    1  UNL1       -0.0024
     26 C         143.2355  137.6625  155.5744 C.ar    1  UNL1        0.0144
     27 C         143.0007  136.8996  156.8445 C.ar    1  UNL1        0.0511
     28 C         142.6256  137.6302  158.0997 C.ar    1  UNL1        0.0226
     29 C         142.4854  139.1235  158.0849 C.ar    1  UNL1        0.0393
     30 N         143.1408  135.4063  156.8593 N.am    1  UNL1       -0.2804
     31 C         142.1851  134.5555  156.0765 C.2     1  UNL1        0.2495
     32 O         141.0892  135.1980  155.2790 O.2     1  UNL1       -0.2698
     33 H         143.8601  134.9845  157.3827 H       1  UNL1        0.1552
     34 C         142.3253  133.0621  156.0913 C.ar    1  UNL1        0.0536
     35 C         141.4817  132.2205  155.1802 C.ar    1  UNL1        0.0045
     36 C         141.6219  130.7272  155.1950 C.ar    1  UNL1        0.0001
     37 C         142.6057  130.0754  156.1210 C.ar    1  UNL1        0.0039
     38 C         143.4493  130.9169  157.0321 C.ar    1  UNL1        0.0716
     39 C         143.3091  132.4103  157.0172 C.ar    1  UNL1        0.0084
     40 C         144.4331  130.2652  157.9580 C.3     1  UNL1        0.4186
     41 F         145.4169  129.6136  158.8840 F       1  UNL1       -0.1659
     42 F         145.0352  131.6052  158.2614 F       1  UNL1       -0.1659
     43 F         143.8311  128.9252  157.6547 F       1  UNL1       -0.1659
@<TRIPOS>BOND
     1    23    24    1
     2    24    25   ar
     3    25    26   ar
     4    26    27   ar
     5    27    30    1
     6    30    31   am
     7    31    32    2
     8    31    34    1
     9    34    35   ar
    10    35    36   ar
    11    36    37   ar
    12    37    38   ar
    13    38    40    1
    14    40    41    1
    15    40    42    1
    16    40    43    1
    17    38    39   ar
    18    27    28   ar
    19    28    29   ar
    20    29     1    1
    21     1     2    3
    22     2     3    1
    23     3     4   ar
    24     4     5   ar
    25     5    15    1
    26    15    16    1
    27    16    17    1
    28    17    18    1
    29    18    19    1
    30    19    20    1
    31    19    21    1
    32    21    22    1
    33     5     6   ar
    34     6     7   ar
    35     7     8   ar
    36     8     9   ar
    37     9    10   ar
    38    10    11    1
    39    10    12   ar
    40    29    24   ar
    41    12     3   ar
    42    39    34   ar
    43    22    16    1
    44    12     6   ar
    45    30    33    1
    46    11    13    1
    47    11    14    1
