@<TRIPOS>MOLECULE
*****
 33 36 0 0 0
SMALL
GASTEIGER

@<TRIPOS>ATOM
      1 C         142.1026  142.5588  163.0993 C.ar    1  UNL1        0.2035
      2 N         141.4295  141.2500  163.3886 N.ar    1  UNL1       -0.2128
      3 C         141.6242  140.5842  164.7186 C.ar    1  UNL1        0.1130
      4 C         142.4921  141.2274  165.7594 C.ar    1  UNL1        0.1049
      5 C         143.1652  142.5363  165.4700 C.ar    1  UNL1        0.2704
      6 O         144.0331  143.1795  166.5108 O.2     1  UNL1       -0.2663
      7 N         142.9705  143.2020  164.1401 N.ar    1  UNL1       -0.2663
      8 C         143.6436  144.5109  163.8507 C.3     1  UNL1        0.1363
      9 C         142.3728  145.3415  155.4055 C.3     1  UNL1        0.0335
     10 C         141.8216  145.2231  156.7955 C.3     1  UNL1        0.1294
     11 O         140.6159  145.9379  157.3298 O.3     1  UNL1       -0.3548
     12 C         140.4285  145.5256  158.7599 C.3     1  UNL1        0.1434
     13 C         141.5184  144.5560  159.1094 C.3     1  UNL1        0.0460
     14 C         140.5717  144.8421  160.2370 C.3     1  UNL1        0.0254
     15 C         140.7664  144.1764  161.5670 C.3     1  UNL1        0.0937
     16 N         141.9079  143.2246  161.7693 N.pl3   1  UNL1       -0.2795
     17 C         142.8547  142.9384  160.6416 C.3     1  UNL1        0.0937
     18 C         142.6600  143.6042  159.3116 C.3     1  UNL1        0.0254
     19 C         142.3794  144.3691  157.8953 C.3     1  UNL1        0.0807
     20 N         143.5862  143.4836  157.7982 N.3     1  UNL1       -0.3202
     21 H         143.7396  143.0186  158.6930 H       1  UNL1        0.1189
     22 H         144.4034  144.0471  157.5634 H       1  UNL1        0.1189
     23 S         142.6868  140.5618  167.0894 S.3     1  UNL1       -0.0792
     24 C         141.5929  140.6008  168.1149 C.ar    1  UNL1        0.0513
     25 C         140.2435  140.0297  167.7942 C.ar    1  UNL1        0.0095
     26 C         139.1495  140.0688  168.8199 C.ar    1  UNL1        0.0212
     27 C         139.4050  140.6791  170.1660 C.ar    1  UNL1        0.0988
     28 N         140.7545  141.2502  170.4867 N.ar    1  UNL1       -0.2394
     29 C         141.8484  141.2111  169.4612 C.ar    1  UNL1        0.1585
     30 C         143.1978  141.7823  169.7818 C.3     1  UNL1        0.4353
     31 F         144.5472  142.3535  170.1025 F       1  UNL1       -0.1644
     32 F         143.6411  140.4453  170.2975 F       1  UNL1       -0.1644
     33 F         142.7545  143.1193  169.2661 F       1  UNL1       -0.1644
@<TRIPOS>BOND
     1    10     9    1
     2    10    11    1
     3    11    12    1
     4    12    13    1
     5    13    14    1
     6    14    15    1
     7    15    16    1
     8    16     1    1
     9     1     2   ar
    10     2     3   ar
    11     3     4   ar
    12     4    23    1
    13    23    24    1
    14    24    25   ar
    15    25    26   ar
    16    26    27   ar
    17    27    28   ar
    18    28    29   ar
    19    29    30    1
    20    30    31    1
    21    30    32    1
    22    30    33    1
    23     4     5   ar
    24     5     6    2
    25     5     7   ar
    26     7     8    1
    27    16    17    1
    28    17    18    1
    29    13    19    1
    30    19    20    1
    31    19    10    1
    32    18    13    1
    33     7     1   ar
    34    29    24   ar
    35    20    21    1
    36    20    22    1
@<TRIPOS>MOLECULE
*****
 33 36 0 0 0
SMALL
GASTEIGER

@<TRIPOS>ATOM
      1 C         141.9297  142.4470  163.3551 C.ar    1  UNL1        0.2035
      2 N         142.6387  143.1429  164.4789 N.ar    1  UNL1       -0.2128
      3 C         142.8191  142.4484  165.7962 C.ar    1  UNL1        0.1130
      4 C         142.2905  141.0581  165.9897 C.ar    1  UNL1        0.1049
      5 C         141.5815  140.3621  164.8658 C.ar    1  UNL1        0.2704
      6 O         141.0530  138.9717  165.0592 O.2     1  UNL1       -0.2663
      7 N         141.4011  141.0566  163.5486 N.ar    1  UNL1       -0.2663
      8 C         140.6921  140.3606  162.4247 C.3     1  UNL1        0.1363
      9 C         142.2859  145.4003  155.7287 C.3     1  UNL1        0.0335
     10 C         141.7180  145.2494  157.1087 C.3     1  UNL1        0.1294
     11 O         140.5034  145.9485  157.6436 O.3     1  UNL1       -0.3548
     12 C         140.2996  145.5040  159.0618 C.3     1  UNL1        0.1434
     13 C         141.3884  144.5303  159.4033 C.3     1  UNL1        0.0460
     14 C         140.4267  144.7884  160.5252 C.3     1  UNL1        0.0254
     15 C         140.6072  144.0940  161.8424 C.3     1  UNL1        0.0937
     16 N         141.7493  143.1414  162.0378 N.pl3   1  UNL1       -0.2795
     17 C         142.7109  142.8832  160.9160 C.3     1  UNL1        0.0937
     18 C         142.5304  143.5777  159.5987 C.3     1  UNL1        0.0254
     19 C         142.2649  144.3729  158.1962 C.3     1  UNL1        0.0807
     20 N         143.4758  143.4935  158.0946 N.3     1  UNL1       -0.3202
     21 H         143.6196  143.0093  158.9808 H       1  UNL1        0.1189
     22 H         144.2939  144.0646  157.8825 H       1  UNL1        0.1189
     23 S         142.4709  140.3636  167.3069 S.3     1  UNL1       -0.0792
     24 C         141.4609  140.5536  168.3994 C.ar    1  UNL1        0.0513
     25 C         140.0648  140.0320  168.2291 C.ar    1  UNL1        0.0095
     26 C         139.0547  140.2221  169.3217 C.ar    1  UNL1        0.0212
     27 C         139.4407  140.9336  170.5845 C.ar    1  UNL1        0.0988
     28 N         140.8367  141.4551  170.7548 N.ar    1  UNL1       -0.2394
     29 C         141.8468  141.2652  169.6623 C.ar    1  UNL1        0.1585
     30 C         143.2429  141.7867  169.8326 C.3     1  UNL1        0.4353
     31 F         144.6389  142.3083  170.0029 F       1  UNL1       -0.1644
     32 F         142.8230  143.1020  169.2463 F       1  UNL1       -0.1644
     33 F         143.6627  140.4714  170.4188 F       1  UNL1       -0.1644
@<TRIPOS>BOND
     1    10     9    1
     2    10    11    1
     3    11    12    1
     4    12    13    1
     5    13    14    1
     6    14    15    1
     7    15    16    1
     8    16     1    1
     9     1     2   ar
    10     2     3   ar
    11     3     4   ar
    12     4    23    1
    13    23    24    1
    14    24    25   ar
    15    25    26   ar
    16    26    27   ar
    17    27    28   ar
    18    28    29   ar
    19    29    30    1
    20    30    31    1
    21    30    32    1
    22    30    33    1
    23     4     5   ar
    24     5     6    2
    25     5     7   ar
    26     7     8    1
    27    16    17    1
    28    17    18    1
    29    13    19    1
    30    19    20    1
    31    19    10    1
    32    18    13    1
    33     7     1   ar
    34    29    24   ar
    35    20    21    1
    36    20    22    1
@<TRIPOS>MOLECULE
*****
 33 36 0 0 0
SMALL
GASTEIGER

@<TRIPOS>ATOM
      1 C         141.2032  143.0024  163.0262 C.ar    1  UNL1        0.2035
      2 N         140.4005  143.6181  164.1336 N.ar    1  UNL1       -0.2128
      3 C         140.7092  143.2789  165.5618 C.ar    1  UNL1        0.1130
      4 C         141.8206  142.3239  165.8825 C.ar    1  UNL1        0.1049
      5 C         142.6233  141.7082  164.7749 C.ar    1  UNL1        0.2704
      6 O         143.7347  140.7532  165.0955 O.2     1  UNL1       -0.2663
      7 N         142.3145  142.0474  163.3468 N.ar    1  UNL1       -0.2663
      8 C         143.1172  141.4316  162.2392 C.3     1  UNL1        0.1363
      9 C         140.7570  145.9167  155.3895 C.3     1  UNL1        0.0335
     10 C         140.3558  145.0478  156.5443 C.3     1  UNL1        0.1294
     11 O         139.2481  144.0363  156.5435 O.3     1  UNL1       -0.3548
     12 C         139.1994  143.4011  157.9016 C.3     1  UNL1        0.1434
     13 C         140.2770  144.0200  158.7417 C.3     1  UNL1        0.0460
     14 C         139.4721  142.9744  159.4550 C.3     1  UNL1        0.0254
     15 C         139.7808  142.6353  160.8832 C.3     1  UNL1        0.0937
     16 N         140.8944  143.3416  161.5979 N.pl3   1  UNL1       -0.2795
     17 C         141.6993  144.3872  160.8846 C.3     1  UNL1        0.0937
     18 C         141.3906  144.7264  159.4565 C.3     1  UNL1        0.0254
     19 C         140.9916  145.0377  157.9028 C.3     1  UNL1        0.0807
     20 N         142.1404  145.8949  158.3450 N.3     1  UNL1       -0.3202
     21 H         142.3696  145.6819  159.3158 H       1  UNL1        0.1189
     22 H         141.8816  146.8782  158.2645 H       1  UNL1        0.1189
     23 S         142.1293  141.9847  167.3106 S.3     1  UNL1       -0.0792
     24 C         141.0531  141.4382  168.2011 C.ar    1  UNL1        0.0513
     25 C         140.0709  140.4396  167.6646 C.ar    1  UNL1        0.0095
     26 C         138.9946  139.8931  168.5552 C.ar    1  UNL1        0.0212
     27 C         138.9006  140.3454  169.9823 C.ar    1  UNL1        0.0988
     28 N         139.8828  141.3441  170.5188 N.ar    1  UNL1       -0.2394
     29 C         140.9591  141.8905  169.6283 C.ar    1  UNL1        0.1585
     30 C         141.9413  142.8892  170.1648 C.3     1  UNL1        0.4353
     31 F         142.9235  143.8879  170.7013 F       1  UNL1       -0.1644
     32 F         142.8816  141.7750  170.5173 F       1  UNL1       -0.1644
     33 F         141.0009  144.0034  169.8123 F       1  UNL1       -0.1644
@<TRIPOS>BOND
     1    10     9    1
     2    10    11    1
     3    11    12    1
     4    12    13    1
     5    13    14    1
     6    14    15    1
     7    15    16    1
     8    16     1    1
     9     1     2   ar
    10     2     3   ar
    11     3     4   ar
    12     4    23    1
    13    23    24    1
    14    24    25   ar
    15    25    26   ar
    16    26    27   ar
    17    27    28   ar
    18    28    29   ar
    19    29    30    1
    20    30    31    1
    21    30    32    1
    22    30    33    1
    23     4     5   ar
    24     5     6    2
    25     5     7   ar
    26     7     8    1
    27    16    17    1
    28    17    18    1
    29    13    19    1
    30    19    20    1
    31    19    10    1
    32    18    13    1
    33     7     1   ar
    34    29    24   ar
    35    20    21    1
    36    20    22    1
@<TRIPOS>MOLECULE
*****
 33 36 0 0 0
SMALL
GASTEIGER

@<TRIPOS>ATOM
      1 C         140.5417  141.9030  163.5250 C.ar    1  UNL1        0.2035
      2 N         139.5740  142.2398  164.6205 N.ar    1  UNL1       -0.2128
      3 C         139.7757  141.6803  165.9976 C.ar    1  UNL1        0.1130
      4 C         140.9451  140.7840  166.2792 C.ar    1  UNL1        0.1049
      5 C         141.9128  140.4472  165.1836 C.ar    1  UNL1        0.2704
      6 O         143.0821  139.5509  165.4652 O.2     1  UNL1       -0.2663
      7 N         141.7111  141.0067  163.8066 N.ar    1  UNL1       -0.2663
      8 C         142.6788  140.6699  162.7110 C.3     1  UNL1        0.1363
      9 C         140.5315  146.0840  156.4873 C.3     1  UNL1        0.0335
     10 C         140.1174  144.9889  157.4248 C.3     1  UNL1        0.1294
     11 O         139.1353  143.8955  157.1244 O.3     1  UNL1       -0.3548
     12 C         139.0236  143.0256  158.3414 C.3     1  UNL1        0.1434
     13 C         139.9367  143.5813  159.3938 C.3     1  UNL1        0.0460
     14 C         139.1870  142.3548  159.8222 C.3     1  UNL1        0.0254
     15 C         139.3887  141.7954  161.1993 C.3     1  UNL1        0.0937
     16 N         140.3400  142.4625  162.1479 N.pl3   1  UNL1       -0.2795
     17 C         141.0897  143.6890  161.7195 C.3     1  UNL1        0.0937
     18 C         140.8880  144.2484  160.3424 C.3     1  UNL1        0.0254
     19 C         140.6127  144.7946  158.8273 C.3     1  UNL1        0.0807
     20 N         141.6090  145.6615  159.5385 N.3     1  UNL1       -0.3202
     21 H         141.7632  145.3003  160.4798 H       1  UNL1        0.1189
     22 H         141.2512  146.6150  159.5946 H       1  UNL1        0.1189
     23 S         141.1467  140.2246  167.6562 S.3     1  UNL1       -0.0792
     24 C         141.7508  141.0783  168.7315 C.ar    1  UNL1        0.0513
     25 C         143.0811  141.7347  168.5093 C.ar    1  UNL1        0.0095
     26 C         143.6851  142.5884  169.5846 C.ar    1  UNL1        0.0212
     27 C         142.9589  142.7857  170.8821 C.ar    1  UNL1        0.0988
     28 N         141.6286  142.1293  171.1044 N.ar    1  UNL1       -0.2394
     29 C         141.0245  141.2756  170.0291 C.ar    1  UNL1        0.1585
     30 C         139.6942  140.6192  170.2513 C.3     1  UNL1        0.4353
     31 F         138.3639  139.9627  170.4735 F       1  UNL1       -0.1644
     32 F         140.3872  139.3573  170.6726 F       1  UNL1       -0.1644
     33 F         139.0012  141.8810  169.8300 F       1  UNL1       -0.1644
@<TRIPOS>BOND
     1    10     9    1
     2    10    11    1
     3    11    12    1
     4    12    13    1
     5    13    14    1
     6    14    15    1
     7    15    16    1
     8    16     1    1
     9     1     2   ar
    10     2     3   ar
    11     3     4   ar
    12     4    23    1
    13    23    24    1
    14    24    25   ar
    15    25    26   ar
    16    26    27   ar
    17    27    28   ar
    18    28    29   ar
    19    29    30    1
    20    30    31    1
    21    30    32    1
    22    30    33    1
    23     4     5   ar
    24     5     6    2
    25     5     7   ar
    26     7     8    1
    27    16    17    1
    28    17    18    1
    29    13    19    1
    30    19    20    1
    31    19    10    1
    32    18    13    1
    33     7     1   ar
    34    29    24   ar
    35    20    21    1
    36    20    22    1
@<TRIPOS>MOLECULE
*****
 33 36 0 0 0
SMALL
GASTEIGER

@<TRIPOS>ATOM
      1 C         139.9244  138.8978  160.2547 C.ar    1  UNL1        0.2035
      2 N         139.4059  137.9656  161.3092 N.ar    1  UNL1       -0.2128
      3 C         138.7693  138.5170  162.5505 C.ar    1  UNL1        0.1130
      4 C         138.6512  140.0007  162.7372 C.ar    1  UNL1        0.1049
      5 C         139.1697  140.9329  161.6826 C.ar    1  UNL1        0.2704
      6 O         139.0516  142.4166  161.8692 O.2     1  UNL1       -0.2663
      7 N         139.8063  140.3815  160.4414 N.ar    1  UNL1       -0.2663
      8 C         140.3248  141.3137  159.3867 C.3     1  UNL1        0.1363
      9 C         141.8623  135.8496  152.9087 C.3     1  UNL1        0.0335
     10 C         142.1398  136.3494  154.2954 C.3     1  UNL1        0.1294
     11 O         143.4881  136.4407  154.9464 O.3     1  UNL1       -0.3548
     12 C         143.2993  136.9934  156.3281 C.3     1  UNL1        0.1434
     13 C         141.8343  137.2436  156.5310 C.3     1  UNL1        0.0460
     14 C         142.6836  137.5984  157.7154 C.3     1  UNL1        0.0254
     15 C         142.0470  138.1498  158.9566 C.3     1  UNL1        0.0937
     16 N         140.5610  138.3464  159.0134 N.pl3   1  UNL1       -0.2795
     17 C         139.7117  137.9916  157.8291 C.3     1  UNL1        0.0937
     18 C         140.3483  137.4402  156.5879 C.3     1  UNL1        0.0254
     19 C         141.1177  136.8456  155.2747 C.3     1  UNL1        0.0807
     20 N         139.6387  136.9291  155.0392 N.3     1  UNL1       -0.3202
     21 H         139.1824  137.3024  155.8717 H       1  UNL1        0.1189
     22 H         139.2730  135.9981  154.8397 H       1  UNL1        0.1189
     23 S         138.0146  140.5521  163.9784 S.3     1  UNL1       -0.0792
     24 C         138.8677  140.9432  165.1485 C.ar    1  UNL1        0.0513
     25 C         139.4200  142.3347  165.2423 C.ar    1  UNL1        0.0095
     26 C         140.2731  142.7257  166.4125 C.ar    1  UNL1        0.0212
     27 C         140.5740  141.7253  167.4888 C.ar    1  UNL1        0.0988
     28 N         140.0218  140.3338  167.3950 N.ar    1  UNL1       -0.2394
     29 C         139.1687  139.9427  166.2249 C.ar    1  UNL1        0.1585
     30 C         138.6165  138.5512  166.1311 C.3     1  UNL1        0.4353
     31 F         138.0642  137.1597  166.0374 F       1  UNL1       -0.1644
     32 F         137.3562  139.0059  166.8056 F       1  UNL1       -0.1644
     33 F         139.8767  138.0966  165.4566 F       1  UNL1       -0.1644
@<TRIPOS>BOND
     1    10     9    1
     2    10    11    1
     3    11    12    1
     4    12    13    1
     5    13    14    1
     6    14    15    1
     7    15    16    1
     8    16     1    1
     9     1     2   ar
    10     2     3   ar
    11     3     4   ar
    12     4    23    1
    13    23    24    1
    14    24    25   ar
    15    25    26   ar
    16    26    27   ar
    17    27    28   ar
    18    28    29   ar
    19    29    30    1
    20    30    31    1
    21    30    32    1
    22    30    33    1
    23     4     5   ar
    24     5     6    2
    25     5     7   ar
    26     7     8    1
    27    16    17    1
    28    17    18    1
    29    13    19    1
    30    19    20    1
    31    19    10    1
    32    18    13    1
    33     7     1   ar
    34    29    24   ar
    35    20    21    1
    36    20    22    1
@<TRIPOS>MOLECULE
*****
 33 36 0 0 0
SMALL
GASTEIGER

@<TRIPOS>ATOM
      1 C         140.9973  138.6296  161.8375 C.ar    1  UNL1        0.2035
      2 N         142.0839  137.6314  161.5678 N.ar    1  UNL1       -0.2128
      3 C         142.6024  137.4456  160.1725 C.ar    1  UNL1        0.1130
      4 C         142.0341  138.2580  159.0469 C.ar    1  UNL1        0.1049
      5 C         140.9474  139.2563  159.3166 C.ar    1  UNL1        0.2704
      6 O         140.3791  140.0687  158.1910 O.2     1  UNL1       -0.2663
      7 N         140.4290  139.4421  160.7118 N.ar    1  UNL1       -0.2663
      8 C         139.3423  140.4403  160.9815 C.3     1  UNL1        0.1363
      9 C         139.4713  140.6232  169.6290 C.3     1  UNL1        0.0335
     10 C         139.2172  139.9326  168.3220 C.3     1  UNL1        0.1294
     11 O         138.0713  139.0133  168.0187 O.3     1  UNL1       -0.3548
     12 C         138.2103  138.5525  166.5979 C.3     1  UNL1        0.1434
     13 C         139.4420  139.1870  166.0232 C.3     1  UNL1        0.0460
     14 C         138.7089  138.2980  165.0629 C.3     1  UNL1        0.0254
     15 C         139.2273  138.1123  163.6677 C.3     1  UNL1        0.0937
     16 N         140.4789  138.8155  163.2328 N.pl3   1  UNL1       -0.2795
     17 C         141.2120  139.7044  164.1931 C.3     1  UNL1        0.0937
     18 C         140.6936  139.8902  165.5883 C.3     1  UNL1        0.0254
     19 C         140.0643  140.0399  167.0888 C.3     1  UNL1        0.0807
     20 N         141.3143  140.8567  166.9461 N.3     1  UNL1       -0.3202
     21 H         141.6867  140.7465  166.0029 H       1  UNL1        0.1189
     22 H         142.0069  140.5396  167.6243 H       1  UNL1        0.1189
     23 S         142.5524  138.0723  157.6517 S.3     1  UNL1       -0.0792
     24 C         142.3507  136.7649  156.9446 C.ar    1  UNL1        0.0513
     25 C         143.2957  135.6260  157.1895 C.ar    1  UNL1        0.0095
     26 C         143.0939  134.3186  156.4824 C.ar    1  UNL1        0.0212
     27 C         141.9472  134.1501  155.5303 C.ar    1  UNL1        0.0988
     28 N         141.0022  135.2890  155.2853 N.ar    1  UNL1       -0.2394
     29 C         141.2039  136.5963  155.9924 C.ar    1  UNL1        0.1585
     30 C         140.2589  137.7352  155.7474 C.3     1  UNL1        0.4353
     31 F         139.3139  138.8740  155.5024 F       1  UNL1       -0.1644
     32 F         141.1075  138.1920  154.5980 F       1  UNL1       -0.1644
     33 F         139.4103  137.2783  156.8968 F       1  UNL1       -0.1644
@<TRIPOS>BOND
     1    10     9    1
     2    10    11    1
     3    11    12    1
     4    12    13    1
     5    13    14    1
     6    14    15    1
     7    15    16    1
     8    16     1    1
     9     1     2   ar
    10     2     3   ar
    11     3     4   ar
    12     4    23    1
    13    23    24    1
    14    24    25   ar
    15    25    26   ar
    16    26    27   ar
    17    27    28   ar
    18    28    29   ar
    19    29    30    1
    20    30    31    1
    21    30    32    1
    22    30    33    1
    23     4     5   ar
    24     5     6    2
    25     5     7   ar
    26     7     8    1
    27    16    17    1
    28    17    18    1
    29    13    19    1
    30    19    20    1
    31    19    10    1
    32    18    13    1
    33     7     1   ar
    34    29    24   ar
    35    20    21    1
    36    20    22    1
@<TRIPOS>MOLECULE
*****
 33 36 0 0 0
SMALL
GASTEIGER

@<TRIPOS>ATOM
      1 C         139.9470  142.2178  162.9908 C.ar    1  UNL1        0.2035
      2 N         139.4202  143.0966  164.0863 N.ar    1  UNL1       -0.2128
      3 C         139.4530  142.6227  165.5092 C.ar    1  UNL1        0.1130
      4 C         140.0128  141.2701  165.8365 C.ar    1  UNL1        0.1049
      5 C         140.5396  140.3913  164.7409 C.ar    1  UNL1        0.2704
      6 O         141.0993  139.0387  165.0682 O.2     1  UNL1       -0.2663
      7 N         140.5067  140.8652  163.3181 N.ar    1  UNL1       -0.2663
      8 C         141.0336  139.9864  162.2225 C.3     1  UNL1        0.1363
      9 C         141.0816  145.6826  155.6615 C.3     1  UNL1        0.0335
     10 C         140.4001  144.7963  156.6614 C.3     1  UNL1        0.1294
     11 O         139.1953  143.9404  156.4042 O.3     1  UNL1       -0.3548
     12 C         138.8543  143.2253  157.6780 C.3     1  UNL1        0.1434
     13 C         139.8483  143.6392  158.7224 C.3     1  UNL1        0.0460
     14 C         138.8214  142.6611  159.2111 C.3     1  UNL1        0.0254
     15 C         138.8543  142.1873  160.6339 C.3     1  UNL1        0.0937
     16 N         139.9141  142.6916  161.5680 N.pl3   1  UNL1       -0.2795
     17 C         140.9410  143.6697  161.0793 C.3     1  UNL1        0.0937
     18 C         140.9081  144.1435  159.6565 C.3     1  UNL1        0.0254
     19 C         140.8036  144.6101  158.0940 C.3     1  UNL1        0.0807
     20 N         141.9595  145.2776  158.7783 N.3     1  UNL1       -0.3202
     21 H         142.0029  144.9705  159.7500 H       1  UNL1        0.1189
     22 H         141.8350  146.2895  158.7468 H       1  UNL1        0.1189
     23 S         140.0457  140.7963  167.2593 S.3     1  UNL1       -0.0792
     24 C         140.8944  141.5112  168.2684 C.ar    1  UNL1        0.0513
     25 C         140.3953  142.7718  168.9100 C.ar    1  UNL1        0.0095
     26 C         141.2441  143.4868  169.9191 C.ar    1  UNL1        0.0212
     27 C         142.5921  142.9411  170.2867 C.ar    1  UNL1        0.0988
     28 N         143.0913  141.6804  169.6451 N.ar    1  UNL1       -0.2394
     29 C         142.2425  140.9655  168.6360 C.ar    1  UNL1        0.1585
     30 C         142.7417  139.7049  167.9944 C.3     1  UNL1        0.4353
     31 F         143.2408  138.4442  167.3529 F       1  UNL1       -0.1644
     32 F         142.2610  138.9138  169.1748 F       1  UNL1       -0.1644
     33 F         143.2224  140.4959  166.8141 F       1  UNL1       -0.1644
@<TRIPOS>BOND
     1    10     9    1
     2    10    11    1
     3    11    12    1
     4    12    13    1
     5    13    14    1
     6    14    15    1
     7    15    16    1
     8    16     1    1
     9     1     2   ar
    10     2     3   ar
    11     3     4   ar
    12     4    23    1
    13    23    24    1
    14    24    25   ar
    15    25    26   ar
    16    26    27   ar
    17    27    28   ar
    18    28    29   ar
    19    29    30    1
    20    30    31    1
    21    30    32    1
    22    30    33    1
    23     4     5   ar
    24     5     6    2
    25     5     7   ar
    26     7     8    1
    27    16    17    1
    28    17    18    1
    29    13    19    1
    30    19    20    1
    31    19    10    1
    32    18    13    1
    33     7     1   ar
    34    29    24   ar
    35    20    21    1
    36    20    22    1
@<TRIPOS>MOLECULE
*****
 33 36 0 0 0
SMALL
GASTEIGER

@<TRIPOS>ATOM
      1 C         142.1403  142.2181  162.9258 C.ar    1  UNL1        0.2035
      2 N         143.0998  142.6671  163.9877 N.ar    1  UNL1       -0.2128
      3 C         142.6424  142.7831  165.4115 C.ar    1  UNL1        0.1130
      4 C         141.2253  142.4501  165.7735 C.ar    1  UNL1        0.1049
      5 C         140.2657  142.0010  164.7115 C.ar    1  UNL1        0.2704
      6 O         138.8486  141.6680  165.0735 O.2     1  UNL1       -0.2663
      7 N         140.7232  141.8850  163.2878 N.ar    1  UNL1       -0.2663
      8 C         139.7636  141.4360  162.2258 C.3     1  UNL1        0.1363
      9 C         144.2265  143.1701  155.0675 C.3     1  UNL1        0.0335
     10 C         144.0511  142.4142  156.3512 C.3     1  UNL1        0.1294
     11 O         144.3822  140.9685  156.5754 O.3     1  UNL1       -0.3548
     12 C         144.0495  140.6321  157.9989 C.3     1  UNL1        0.1434
     13 C         143.5127  141.8699  158.6544 C.3     1  UNL1        0.0460
     14 C         143.5707  140.6759  159.5604 C.3     1  UNL1        0.0254
     15 C         143.1133  140.7920  160.9842 C.3     1  UNL1        0.0937
     16 N         142.5977  142.1020  161.5019 N.pl3   1  UNL1       -0.2795
     17 C         142.5397  143.2960  160.5959 C.3     1  UNL1        0.0937
     18 C         142.9971  143.1800  159.1721 C.3     1  UNL1        0.0254
     19 C         143.5137  142.9713  157.6360 C.3     1  UNL1        0.0807
     20 N         143.0574  144.3821  157.8628 N.3     1  UNL1       -0.3202
     21 H         142.7406  144.4862  158.8268 H       1  UNL1        0.1189
     22 H         142.2890  144.5972  157.2273 H       1  UNL1        0.1189
     23 S         140.7678  142.5661  167.1972 S.3     1  UNL1       -0.0792
     24 C         141.4619  141.7858  168.2739 C.ar    1  UNL1        0.0513
     25 C         142.7143  142.3230  168.9007 C.ar    1  UNL1        0.0095
     26 C         143.4084  141.5426  169.9775 C.ar    1  UNL1        0.0212
     27 C         142.8501  140.2251  170.4274 C.ar    1  UNL1        0.0988
     28 N         141.5977  139.6879  169.8006 N.ar    1  UNL1       -0.2394
     29 C         140.9036  140.4682  168.7239 C.ar    1  UNL1        0.1585
     30 C         139.6512  139.9310  168.0971 C.3     1  UNL1        0.4353
     31 F         138.3988  139.3938  167.4702 F       1  UNL1       -0.1644
     32 F         138.8468  140.4693  169.2430 F       1  UNL1       -0.1644
     33 F         140.4556  139.3927  166.9511 F       1  UNL1       -0.1644
@<TRIPOS>BOND
     1    10     9    1
     2    10    11    1
     3    11    12    1
     4    12    13    1
     5    13    14    1
     6    14    15    1
     7    15    16    1
     8    16     1    1
     9     1     2   ar
    10     2     3   ar
    11     3     4   ar
    12     4    23    1
    13    23    24    1
    14    24    25   ar
    15    25    26   ar
    16    26    27   ar
    17    27    28   ar
    18    28    29   ar
    19    29    30    1
    20    30    31    1
    21    30    32    1
    22    30    33    1
    23     4     5   ar
    24     5     6    2
    25     5     7   ar
    26     7     8    1
    27    16    17    1
    28    17    18    1
    29    13    19    1
    30    19    20    1
    31    19    10    1
    32    18    13    1
    33     7     1   ar
    34    29    24   ar
    35    20    21    1
    36    20    22    1
@<TRIPOS>MOLECULE
*****
 33 36 0 0 0
SMALL
GASTEIGER

@<TRIPOS>ATOM
      1 C         142.8912  141.9799  161.3476 C.ar    1  UNL1        0.2035
      2 N         141.6130  142.7624  161.4095 N.ar    1  UNL1       -0.2128
      3 C         140.9457  143.0057  162.7307 C.ar    1  UNL1        0.1130
      4 C         141.5567  142.4663  163.9900 C.ar    1  UNL1        0.1049
      5 C         142.8349  141.6837  163.9281 C.ar    1  UNL1        0.2704
      6 O         143.4458  141.1444  165.1874 O.2     1  UNL1       -0.2663
      7 N         143.5021  141.4405  162.6069 N.ar    1  UNL1       -0.2663
      8 C         144.7803  140.6579  162.5450 C.3     1  UNL1        0.1363
      9 C         147.4692  141.9298  154.5615 C.3     1  UNL1        0.0335
     10 C         146.3839  141.4507  155.4793 C.3     1  UNL1        0.1294
     11 O         145.4557  140.3007  155.2222 O.3     1  UNL1       -0.3548
     12 C         144.5342  140.1767  156.3994 C.3     1  UNL1        0.1434
     13 C         144.8929  141.2500  157.3840 C.3     1  UNL1        0.0460
     14 C         143.7555  140.3758  157.8220 C.3     1  UNL1        0.0254
     15 C         143.0883  140.6191  159.1432 C.3     1  UNL1        0.0937
     16 N         143.5585  141.7366  160.0263 N.pl3   1  UNL1       -0.2795
     17 C         144.6959  142.6109  159.5883 C.3     1  UNL1        0.0937
     18 C         145.3631  142.3676  158.2671 C.3     1  UNL1        0.0254
     19 C         146.0361  142.0374  156.8152 C.3     1  UNL1        0.0807
     20 N         146.7126  143.2062  157.4680 N.3     1  UNL1       -0.3202
     21 H         146.2752  143.3917  158.3706 H       1  UNL1        0.1189
     22 H         146.6221  144.0283  156.8710 H       1  UNL1        0.1189
     23 S         140.8895  142.7096  165.3112 S.3     1  UNL1       -0.0792
     24 C         140.1265  141.6052  165.9807 C.ar    1  UNL1        0.0513
     25 C         139.1802  140.7571  165.1836 C.ar    1  UNL1        0.0095
     26 C         138.4172  139.6527  165.8531 C.ar    1  UNL1        0.0212
     27 C         138.6006  139.3964  167.3196 C.ar    1  UNL1        0.0988
     28 N         139.5469  140.2444  168.1167 N.ar    1  UNL1       -0.2394
     29 C         140.3098  141.3488  167.4472 C.ar    1  UNL1        0.1585
     30 C         141.2561  142.1969  168.2443 C.3     1  UNL1        0.4353
     31 F         142.2025  143.0449  169.0413 F       1  UNL1       -0.1644
     32 F         140.1787  143.2236  168.4310 F       1  UNL1       -0.1644
     33 F         142.3336  141.1701  168.0575 F       1  UNL1       -0.1644
@<TRIPOS>BOND
     1    10     9    1
     2    10    11    1
     3    11    12    1
     4    12    13    1
     5    13    14    1
     6    14    15    1
     7    15    16    1
     8    16     1    1
     9     1     2   ar
    10     2     3   ar
    11     3     4   ar
    12     4    23    1
    13    23    24    1
    14    24    25   ar
    15    25    26   ar
    16    26    27   ar
    17    27    28   ar
    18    28    29   ar
    19    29    30    1
    20    30    31    1
    21    30    32    1
    22    30    33    1
    23     4     5   ar
    24     5     6    2
    25     5     7   ar
    26     7     8    1
    27    16    17    1
    28    17    18    1
    29    13    19    1
    30    19    20    1
    31    19    10    1
    32    18    13    1
    33     7     1   ar
    34    29    24   ar
    35    20    21    1
    36    20    22    1
