@<TRIPOS>MOLECULE
*****
 35 39 0 0 0
SMALL
GASTEIGER

@<TRIPOS>ATOM
      1 N         139.0794  138.3265  162.8271 N.3     1  UNL1       -0.2720
      2 C         140.4158  137.6451  162.8377 C.3     1  UNL1        0.0768
      3 C         141.4964  137.7217  163.8753 C.3     1  UNL1        0.0434
      4 C         141.5075  138.4986  165.1583 C.ar    1  UNL1       -0.0231
      5 C         142.7899  138.2970  165.9099 C.ar    1  UNL1       -0.0013
      6 C         143.0057  138.9875  167.2239 C.ar    1  UNL1        0.0388
      7 C         141.9390  139.8797  167.7864 C.ar    1  UNL1        0.1643
      8 O         141.8681  140.6864  169.0490 O.2     1  UNL1       -0.4317
      9 C         140.5418  141.3867  169.0778 C.ar    1  UNL1        0.3031
     10 N         139.7931  141.0127  167.8329 N.ar    1  UNL1       -0.2053
     11 C         140.6566  140.0813  167.0348 C.ar    1  UNL1        0.1145
     12 C         140.4409  139.3908  165.7208 C.ar    1  UNL1       -0.0039
     13 C         139.0996  139.7264  165.1391 C.3     1  UNL1        0.0450
     14 C         138.4938  139.2527  163.8512 C.3     1  UNL1        0.0769
     15 C         140.0505  142.3004  170.1611 C.3     1  UNL1        0.4696
     16 F         139.5593  143.2143  171.2445 F       1  UNL1       -0.1619
     17 F         138.7744  141.5165  170.2436 F       1  UNL1       -0.1619
     18 F         141.3268  143.0844  170.0786 F       1  UNL1       -0.1619
     19 C         138.2145  138.0442  161.6345 C.3     1  UNL1        0.0730
     20 C         137.5244  139.1711  160.9249 C.3     1  UNL1        0.0294
     21 C         138.2621  139.9711  159.8924 C.3     1  UNL1        0.0666
     22 S         138.4482  141.4476  160.0798 S.3     1  UNL1       -0.0756
     23 C         140.6651  142.6339  163.0368 C.ar    1  UNL1        0.1680
     24 N         139.2929  142.9258  163.5679 N.ar    1  UNL1       -0.1282
     25 N         138.2955  142.5169  162.5249 N.ar    1  UNL1       -0.1221
     26 C         139.0512  141.9724  161.3491 C.ar    1  UNL1        0.1932
     27 N         140.5156  142.0447  161.6655 N.ar    1  UNL1       -0.2884
     28 C         141.6343  141.6050  160.7681 C.3     1  UNL1        0.1340
     29 C         141.7212  145.4311  163.2822 C.3     1  UNL1        0.0522
     30 C         142.4874  144.2854  163.8742 C.ar    1  UNL1        0.0623
     31 N         143.7817  144.5384  164.5890 N.ar    1  UNL1       -0.2480
     32 C         144.5479  143.3929  165.1809 C.ar    1  UNL1        0.0984
     33 C         144.0199  141.9943  165.0582 C.ar    1  UNL1        0.0208
     34 C         142.7256  141.7413  164.3435 C.ar    1  UNL1        0.0058
     35 C         141.9593  142.8869  163.7515 C.ar    1  UNL1        0.0495
@<TRIPOS>BOND
     1    29    30    1
     2    30    31   ar
     3    31    32   ar
     4    32    33   ar
     5    33    34   ar
     6    34    35   ar
     7    35    23    1
     8    23    24   ar
     9    24    25   ar
    10    25    26   ar
    11    26    22    1
    12    22    21    1
    13    21    20    1
    14    20    19    1
    15    19     1    1
    16     1     2    1
    17     2     3    1
    18     3     4    1
    19     4     5   ar
    20     5     6   ar
    21     6     7   ar
    22     7     8   ar
    23     8     9   ar
    24     9    15    1
    25    15    16    1
    26    15    17    1
    27    15    18    1
    28     9    10   ar
    29    10    11   ar
    30    11    12   ar
    31    12    13    1
    32    13    14    1
    33    26    27   ar
    34    27    28    1
    35    35    30   ar
    36    27    23   ar
    37    14     1    1
    38    12     4   ar
    39    11     7   ar
@<TRIPOS>MOLECULE
*****
 35 39 0 0 0
SMALL
GASTEIGER

@<TRIPOS>ATOM
      1 N         142.6138  138.3186  162.7872 N.3     1  UNL1       -0.2720
      2 C         141.3155  137.6164  162.5196 C.3     1  UNL1        0.0768
      3 C         140.0876  137.5612  163.3795 C.3     1  UNL1        0.0434
      4 C         139.8549  138.1944  164.7191 C.ar    1  UNL1       -0.0231
      5 C         138.4807  137.8899  165.2379 C.ar    1  UNL1       -0.0013
      6 C         138.0440  138.4302  166.5673 C.ar    1  UNL1        0.0388
      7 C         138.9815  139.2750  167.3781 C.ar    1  UNL1        0.1643
      8 O         138.8319  139.9415  168.7135 O.2     1  UNL1       -0.4317
      9 C         140.1136  140.6579  169.0202 C.ar    1  UNL1        0.3031
     10 N         141.0554  140.4342  167.8743 N.ar    1  UNL1       -0.2053
     11 C         140.3557  139.5795  166.8594 C.ar    1  UNL1        0.1145
     12 C         140.7923  139.0392  165.5300 C.ar    1  UNL1       -0.0039
     13 C         142.1942  139.4595  165.2013 C.3     1  UNL1        0.0450
     14 C         143.0048  139.1387  163.9806 C.3     1  UNL1        0.0769
     15 C         140.4028  141.4577  170.2558 C.3     1  UNL1        0.4696
     16 F         140.6920  142.2575  171.4914 F       1  UNL1       -0.1619
     17 F         140.9625  140.2333  170.9173 F       1  UNL1       -0.1619
     18 F         139.8431  142.6821  169.5943 F       1  UNL1       -0.1619
     19 C         143.6593  138.1823  161.7202 C.3     1  UNL1        0.0730
     20 C         144.1915  139.4039  161.0314 C.3     1  UNL1        0.0294
     21 C         143.6788  139.7827  159.6735 C.3     1  UNL1        0.0666
     22 S         143.3837  141.2188  159.3571 S.3     1  UNL1       -0.0756
     23 C         142.0013  143.3006  162.3270 C.ar    1  UNL1        0.1680
     24 N         143.2652  144.0456  162.0143 N.ar    1  UNL1       -0.1282
     25 N         143.9368  143.3563  160.8638 N.ar    1  UNL1       -0.1221
     26 C         143.0881  142.1855  160.4653 C.ar    1  UNL1        0.1932
     27 N         141.8919  142.1511  161.3696 N.ar    1  UNL1       -0.2884
     28 C         140.7811  141.1440  161.3245 C.3     1  UNL1        0.1340
     29 C         139.9011  145.3858  161.8362 C.3     1  UNL1        0.0522
     30 C         139.9692  144.6874  163.1620 C.ar    1  UNL1        0.0623
     31 N         138.9872  145.0317  164.2423 N.ar    1  UNL1       -0.2480
     32 C         139.0553  144.3334  165.5680 C.ar    1  UNL1        0.0984
     33 C         140.1054  143.2907  165.8135 C.ar    1  UNL1        0.0208
     34 C         141.0874  142.9465  164.7331 C.ar    1  UNL1        0.0058
     35 C         141.0193  143.6449  163.4073 C.ar    1  UNL1        0.0495
@<TRIPOS>BOND
     1    29    30    1
     2    30    31   ar
     3    31    32   ar
     4    32    33   ar
     5    33    34   ar
     6    34    35   ar
     7    35    23    1
     8    23    24   ar
     9    24    25   ar
    10    25    26   ar
    11    26    22    1
    12    22    21    1
    13    21    20    1
    14    20    19    1
    15    19     1    1
    16     1     2    1
    17     2     3    1
    18     3     4    1
    19     4     5   ar
    20     5     6   ar
    21     6     7   ar
    22     7     8   ar
    23     8     9   ar
    24     9    15    1
    25    15    16    1
    26    15    17    1
    27    15    18    1
    28     9    10   ar
    29    10    11   ar
    30    11    12   ar
    31    12    13    1
    32    13    14    1
    33    26    27   ar
    34    27    28    1
    35    35    30   ar
    36    27    23   ar
    37    14     1    1
    38    12     4   ar
    39    11     7   ar
@<TRIPOS>MOLECULE
*****
 35 39 0 0 0
SMALL
GASTEIGER

@<TRIPOS>ATOM
      1 N         138.8365  144.1043  163.3774 N.3     1  UNL1       -0.2720
      2 C         138.0394  142.9078  162.9493 C.3     1  UNL1        0.0768
      3 C         137.8723  141.5944  163.6545 C.3     1  UNL1        0.0434
      4 C         138.4608  141.1533  164.9617 C.ar    1  UNL1       -0.0231
      5 C         138.0399  139.7559  165.3084 C.ar    1  UNL1       -0.0013
      6 C         138.5201  139.1217  166.5801 C.ar    1  UNL1        0.0388
      7 C         139.4212  139.8848  167.5052 C.ar    1  UNL1        0.1643
      8 O         140.0496  139.5238  168.8184 O.2     1  UNL1       -0.4317
      9 C         140.8589  140.6980  169.2834 C.ar    1  UNL1        0.3031
     10 N         140.7307  141.7848  168.2575 N.ar    1  UNL1       -0.2053
     11 C         139.8421  141.2822  167.1584 C.ar    1  UNL1        0.1145
     12 C         139.3620  141.9164  165.8867 C.ar    1  UNL1       -0.0039
     13 C         139.8971  143.3092  165.7329 C.3     1  UNL1        0.0450
     14 C         139.6632  144.2829  164.6161 C.3     1  UNL1        0.0769
     15 C         141.6564  140.7725  170.5516 C.3     1  UNL1        0.4696
     16 F         142.4538  140.8469  171.8200 F       1  UNL1       -0.1619
     17 F         142.8817  141.1228  169.7606 F       1  UNL1       -0.1619
     18 F         140.4310  140.4222  171.3428 F       1  UNL1       -0.1619
     19 C         138.8023  145.2772  162.4429 C.3     1  UNL1        0.0730
     20 C         140.0826  145.8519  161.9134 C.3     1  UNL1        0.0294
     21 C         140.4975  145.5805  160.4976 C.3     1  UNL1        0.0666
     22 S         141.4808  144.4874  160.2007 S.3     1  UNL1       -0.0756
     23 C         143.1566  142.3800  162.9965 C.ar    1  UNL1        0.1680
     24 N         144.0016  143.6191  163.0215 N.ar    1  UNL1       -0.1282
     25 N         143.4767  144.5593  161.9772 N.ar    1  UNL1       -0.1221
     26 C         142.3073  143.9013  161.3068 C.ar    1  UNL1        0.1932
     27 N         142.1094  142.5545  161.9367 N.ar    1  UNL1       -0.2884
     28 C         141.0503  141.5571  161.5711 C.3     1  UNL1        0.1340
     29 C         144.3183  139.8525  161.8731 C.3     1  UNL1        0.0522
     30 C         143.9093  139.9139  163.3150 C.ar    1  UNL1        0.0623
     31 N         144.0813  138.7115  164.1952 N.ar    1  UNL1       -0.2480
     32 C         143.6724  138.7729  165.6369 C.ar    1  UNL1        0.0984
     33 C         143.0915  140.0366  166.1987 C.ar    1  UNL1        0.0208
     34 C         142.9195  141.2390  165.3185 C.ar    1  UNL1        0.0058
     35 C         143.3285  141.1777  163.8766 C.ar    1  UNL1        0.0495
@<TRIPOS>BOND
     1    29    30    1
     2    30    31   ar
     3    31    32   ar
     4    32    33   ar
     5    33    34   ar
     6    34    35   ar
     7    35    23    1
     8    23    24   ar
     9    24    25   ar
    10    25    26   ar
    11    26    22    1
    12    22    21    1
    13    21    20    1
    14    20    19    1
    15    19     1    1
    16     1     2    1
    17     2     3    1
    18     3     4    1
    19     4     5   ar
    20     5     6   ar
    21     6     7   ar
    22     7     8   ar
    23     8     9   ar
    24     9    15    1
    25    15    16    1
    26    15    17    1
    27    15    18    1
    28     9    10   ar
    29    10    11   ar
    30    11    12   ar
    31    12    13    1
    32    13    14    1
    33    26    27   ar
    34    27    28    1
    35    35    30   ar
    36    27    23   ar
    37    14     1    1
    38    12     4   ar
    39    11     7   ar
@<TRIPOS>MOLECULE
*****
 35 39 0 0 0
SMALL
GASTEIGER

@<TRIPOS>ATOM
      1 N         142.8180  138.3726  162.9527 N.3     1  UNL1       -0.2720
      2 C         141.3993  137.9008  163.0750 C.3     1  UNL1        0.0768
      3 C         140.4045  138.1992  164.1574 C.3     1  UNL1        0.0434
      4 C         140.5827  139.0429  165.3846 C.ar    1  UNL1       -0.0231
      5 C         139.3311  139.0800  166.2106 C.ar    1  UNL1       -0.0013
      6 C         139.2965  139.8709  167.4847 C.ar    1  UNL1        0.0388
      7 C         140.5135  140.6247  167.9329 C.ar    1  UNL1        0.1643
      8 O         140.7759  141.4843  169.1338 O.2     1  UNL1       -0.4317
      9 C         142.1897  141.9784  169.0501 C.ar    1  UNL1        0.3031
     10 N         142.8011  141.4242  167.7974 N.ar    1  UNL1       -0.2053
     11 C         141.7651  140.5875  167.1069 C.ar    1  UNL1        0.1145
     12 C         141.7997  139.7967  165.8328 C.ar    1  UNL1       -0.0039
     13 C         143.1390  139.8929  165.1643 C.3     1  UNL1        0.0450
     14 C         143.5922  139.2590  163.8825 C.3     1  UNL1        0.0769
     15 C         142.8724  142.8702  170.0443 C.3     1  UNL1        0.4696
     16 F         143.5552  143.7620  171.0387 F       1  UNL1       -0.1619
     17 F         141.6572  143.7483  170.0911 F       1  UNL1       -0.1619
     18 F         144.0876  141.9920  169.9976 F       1  UNL1       -0.1619
     19 C         143.5605  137.8945  161.7402 C.3     1  UNL1        0.0730
     20 C         142.8304  137.6892  160.4462 C.3     1  UNL1        0.0294
     21 C         143.1669  138.5338  159.2530 C.3     1  UNL1        0.0666
     22 S         142.7959  139.9870  159.2342 S.3     1  UNL1       -0.0756
     23 C         139.8506  141.5028  161.2574 C.ar    1  UNL1        0.1680
     24 N         139.1122  140.7477  160.1921 N.ar    1  UNL1       -0.1282
     25 N         140.1257  140.0880  159.3046 N.ar    1  UNL1       -0.1221
     26 C         141.4904  140.4354  159.8214 C.ar    1  UNL1        0.1932
     27 N         141.3203  141.3097  161.0282 N.ar    1  UNL1       -0.2884
     28 C         142.4260  141.8893  161.8599 C.3     1  UNL1        0.1340
     29 C         139.8191  144.4979  161.0892 C.3     1  UNL1        0.0522
     30 C         139.2127  143.8068  162.2745 C.ar    1  UNL1        0.0623
     31 N         138.5905  144.6134  163.3756 N.ar    1  UNL1       -0.2480
     32 C         137.9840  143.9223  164.5607 C.ar    1  UNL1        0.0984
     33 C         137.9998  142.4248  164.6448 C.ar    1  UNL1        0.0208
     34 C         138.6220  141.6183  163.5437 C.ar    1  UNL1        0.0058
     35 C         139.2284  142.3093  162.3585 C.ar    1  UNL1        0.0495
@<TRIPOS>BOND
     1    29    30    1
     2    30    31   ar
     3    31    32   ar
     4    32    33   ar
     5    33    34   ar
     6    34    35   ar
     7    35    23    1
     8    23    24   ar
     9    24    25   ar
    10    25    26   ar
    11    26    22    1
    12    22    21    1
    13    21    20    1
    14    20    19    1
    15    19     1    1
    16     1     2    1
    17     2     3    1
    18     3     4    1
    19     4     5   ar
    20     5     6   ar
    21     6     7   ar
    22     7     8   ar
    23     8     9   ar
    24     9    15    1
    25    15    16    1
    26    15    17    1
    27    15    18    1
    28     9    10   ar
    29    10    11   ar
    30    11    12   ar
    31    12    13    1
    32    13    14    1
    33    26    27   ar
    34    27    28    1
    35    35    30   ar
    36    27    23   ar
    37    14     1    1
    38    12     4   ar
    39    11     7   ar
@<TRIPOS>MOLECULE
*****
 35 39 0 0 0
SMALL
GASTEIGER

@<TRIPOS>ATOM
      1 N         139.9317  143.6781  160.3064 N.3     1  UNL1       -0.2720
      2 C         140.4208  144.7368  161.2499 C.3     1  UNL1        0.0768
      3 C         140.5091  144.6873  162.7465 C.3     1  UNL1        0.0434
      4 C         140.1302  143.5671  163.6691 C.ar    1  UNL1       -0.0231
      5 C         140.3782  143.9305  165.1032 C.ar    1  UNL1       -0.0013
      6 C         140.0653  142.9465  166.1912 C.ar    1  UNL1        0.0388
      7 C         139.5045  141.5989  165.8453 C.ar    1  UNL1        0.1643
      8 O         139.1014  140.4310  166.6958 O.2     1  UNL1       -0.4317
      9 C         138.6043  139.3457  165.7875 C.ar    1  UNL1        0.3031
     10 N         138.7001  139.8429  164.3755 N.ar    1  UNL1       -0.2053
     11 C         139.2565  141.2355  164.4112 C.ar    1  UNL1        0.1145
     12 C         139.5693  142.2195  163.3232 C.ar    1  UNL1       -0.0039
     13 C         139.2489  141.6595  161.9691 C.3     1  UNL1        0.0450
     14 C         139.4102  142.3087  160.6265 C.3     1  UNL1        0.0769
     15 C         138.0998  137.9996  166.2159 C.3     1  UNL1        0.4696
     16 F         137.5955  136.6534  166.6442 F       1  UNL1       -0.1619
     17 F         137.2851  138.6485  167.2952 F       1  UNL1       -0.1619
     18 F         138.9147  137.3508  165.1364 F       1  UNL1       -0.1619
     19 C         139.9692  144.0365  158.8503 C.3     1  UNL1        0.0730
     20 C         141.1268  143.6030  158.0008 C.3     1  UNL1        0.0294
     21 C         142.5312  143.8859  158.4459 C.3     1  UNL1        0.0666
     22 S         143.3511  142.7998  159.0766 S.3     1  UNL1       -0.0756
     23 C         143.2280  141.7931  162.8233 C.ar    1  UNL1        0.1680
     24 N         143.7811  143.1845  162.9149 N.ar    1  UNL1       -0.1282
     25 N         143.8945  143.7309  161.5226 N.ar    1  UNL1       -0.1221
     26 C         143.4115  142.6772  160.5704 C.ar    1  UNL1        0.1932
     27 N         142.9996  141.4797  161.3743 N.ar    1  UNL1       -0.2884
     28 C         142.4550  140.1943  160.8255 C.3     1  UNL1        0.1340
     29 C         143.7886  142.7011  165.6270 C.3     1  UNL1        0.0522
     30 C         143.2321  141.3302  165.3797 C.ar    1  UNL1        0.0623
     31 N         142.9559  140.4134  166.5343 N.ar    1  UNL1       -0.2480
     32 C         142.3995  139.0426  166.2870 C.ar    1  UNL1        0.0984
     33 C         142.1192  138.5886  164.8851 C.ar    1  UNL1        0.0208
     34 C         142.3953  139.5055  163.7305 C.ar    1  UNL1        0.0058
     35 C         142.9518  140.8763  163.9778 C.ar    1  UNL1        0.0495
@<TRIPOS>BOND
     1    29    30    1
     2    30    31   ar
     3    31    32   ar
     4    32    33   ar
     5    33    34   ar
     6    34    35   ar
     7    35    23    1
     8    23    24   ar
     9    24    25   ar
    10    25    26   ar
    11    26    22    1
    12    22    21    1
    13    21    20    1
    14    20    19    1
    15    19     1    1
    16     1     2    1
    17     2     3    1
    18     3     4    1
    19     4     5   ar
    20     5     6   ar
    21     6     7   ar
    22     7     8   ar
    23     8     9   ar
    24     9    15    1
    25    15    16    1
    26    15    17    1
    27    15    18    1
    28     9    10   ar
    29    10    11   ar
    30    11    12   ar
    31    12    13    1
    32    13    14    1
    33    26    27   ar
    34    27    28    1
    35    35    30   ar
    36    27    23   ar
    37    14     1    1
    38    12     4   ar
    39    11     7   ar
@<TRIPOS>MOLECULE
*****
 35 39 0 0 0
SMALL
GASTEIGER

@<TRIPOS>ATOM
      1 N         139.9434  141.8813  159.0058 N.3     1  UNL1       -0.2720
      2 C         141.0943  140.9700  158.6975 C.3     1  UNL1        0.0768
      3 C         141.6256  139.8266  159.5103 C.3     1  UNL1        0.0434
      4 C         141.1374  139.3124  160.8320 C.ar    1  UNL1       -0.0231
      5 C         141.9541  138.1450  161.3014 C.ar    1  UNL1       -0.0013
      6 C         141.6306  137.4797  162.6063 C.ar    1  UNL1        0.0388
      7 C         140.4905  137.9816  163.4418 C.ar    1  UNL1        0.1643
      8 O         139.9392  137.5312  164.7621 O.2     1  UNL1       -0.4317
      9 C         138.7817  138.4201  165.1087 C.ar    1  UNL1        0.3031
     10 N         138.6177  139.4200  164.0026 N.ar    1  UNL1       -0.2053
     11 C         139.6737  139.1490  162.9724 C.ar    1  UNL1        0.1145
     12 C         139.9972  139.8143  161.6675 C.ar    1  UNL1       -0.0039
     13 C         139.0637  140.9546  161.3876 C.3     1  UNL1        0.0450
     14 C         139.0398  141.8745  160.2030 C.3     1  UNL1        0.0769
     15 C         137.9367  138.3258  166.3444 C.3     1  UNL1        0.4696
     16 F         137.0916  138.2314  167.5801 F       1  UNL1       -0.1619
     17 F         137.8412  139.8220  166.3933 F       1  UNL1       -0.1619
     18 F         138.0321  136.8296  166.2955 F       1  UNL1       -0.1619
     19 C         139.6587  142.9394  157.9814 C.3     1  UNL1        0.0730
     20 C         139.9646  144.3766  158.2827 C.3     1  UNL1        0.0294
     21 C         141.2150  144.7368  159.0290 C.3     1  UNL1        0.0666
     22 S         141.1552  145.0172  160.5013 S.3     1  UNL1       -0.0756
     23 C         142.0876  142.7807  163.5335 C.ar    1  UNL1        0.1680
     24 N         142.8616  142.1158  162.4339 N.ar    1  UNL1       -0.1282
     25 N         142.6065  142.8726  161.1643 N.ar    1  UNL1       -0.1221
     26 C         141.6749  144.0054  161.4791 C.ar    1  UNL1        0.1932
     27 N         141.3543  143.9485  162.9433 N.ar    1  UNL1       -0.2884
     28 C         140.4576  144.8936  163.6868 C.3     1  UNL1        0.1340
     29 C         144.4097  143.3845  165.3342 C.3     1  UNL1        0.0522
     30 C         143.2142  142.6548  165.8711 C.ar    1  UNL1        0.0623
     31 N         143.1797  142.2270  167.3084 N.ar    1  UNL1       -0.2480
     32 C         141.9843  141.4974  167.8453 C.ar    1  UNL1        0.0984
     33 C         140.8232  141.1955  166.9449 C.ar    1  UNL1        0.0208
     34 C         140.8576  141.6232  165.5076 C.ar    1  UNL1        0.0058
     35 C         142.0532  142.3530  164.9707 C.ar    1  UNL1        0.0495
@<TRIPOS>BOND
     1    29    30    1
     2    30    31   ar
     3    31    32   ar
     4    32    33   ar
     5    33    34   ar
     6    34    35   ar
     7    35    23    1
     8    23    24   ar
     9    24    25   ar
    10    25    26   ar
    11    26    22    1
    12    22    21    1
    13    21    20    1
    14    20    19    1
    15    19     1    1
    16     1     2    1
    17     2     3    1
    18     3     4    1
    19     4     5   ar
    20     5     6   ar
    21     6     7   ar
    22     7     8   ar
    23     8     9   ar
    24     9    15    1
    25    15    16    1
    26    15    17    1
    27    15    18    1
    28     9    10   ar
    29    10    11   ar
    30    11    12   ar
    31    12    13    1
    32    13    14    1
    33    26    27   ar
    34    27    28    1
    35    35    30   ar
    36    27    23   ar
    37    14     1    1
    38    12     4   ar
    39    11     7   ar
@<TRIPOS>MOLECULE
*****
 35 39 0 0 0
SMALL
GASTEIGER

@<TRIPOS>ATOM
      1 N         142.2538  144.0206  159.5690 N.3     1  UNL1       -0.2720
      2 C         140.9375  144.7346  159.6567 C.3     1  UNL1        0.0768
      3 C         140.0512  144.9183  160.8530 C.3     1  UNL1        0.0434
      4 C         140.2623  144.4336  162.2566 C.ar    1  UNL1       -0.0231
      5 C         139.1275  144.8351  163.1516 C.ar    1  UNL1       -0.0013
      6 C         139.1422  144.4484  164.6008 C.ar    1  UNL1        0.0388
      7 C         140.2917  143.6601  165.1551 C.ar    1  UNL1        0.1643
      8 O         140.5803  143.1391  166.5317 O.2     1  UNL1       -0.4317
      9 C         141.8935  142.4154  166.4876 C.ar    1  UNL1        0.3031
     10 N         142.4165  142.4893  165.0837 N.ar    1  UNL1       -0.2053
     11 C         141.4265  143.2586  164.2601 C.ar    1  UNL1        0.1145
     12 C         141.4118  143.6453  162.8109 C.ar    1  UNL1       -0.0039
     13 C         142.6341  143.1471  162.0984 C.3     1  UNL1        0.0450
     14 C         143.0088  143.3142  160.6555 C.3     1  UNL1        0.0769
     15 C         142.5656  141.7370  167.6443 C.3     1  UNL1        0.4696
     16 F         143.2377  141.0586  168.8010 F       1  UNL1       -0.1619
     17 F         143.7336  142.6688  167.5120 F       1  UNL1       -0.1619
     18 F         141.3975  140.8052  167.7766 F       1  UNL1       -0.1619
     19 C         142.9005  144.0120  158.2155 C.3     1  UNL1        0.0730
     20 C         143.5369  142.7570  157.6963 C.3     1  UNL1        0.0294
     21 C         142.7009  141.7256  156.9979 C.3     1  UNL1        0.0666
     22 S         141.9342  140.7146  157.7978 S.3     1  UNL1       -0.0756
     23 C         142.9943  139.1629  161.1940 C.ar    1  UNL1        0.1680
     24 N         144.1717  138.8102  160.3340 N.ar    1  UNL1       -0.1282
     25 N         143.9178  139.3486  158.9572 N.ar    1  UNL1       -0.1221
     26 C         142.5836  140.0340  158.9662 C.ar    1  UNL1        0.1932
     27 N         142.0129  139.9192  160.3486 N.ar    1  UNL1       -0.2884
     28 C         140.6924  140.4649  160.8054 C.3     1  UNL1        0.1340
     29 C         144.7860  140.4166  163.2476 C.3     1  UNL1        0.0522
     30 C         143.7235  139.4464  163.6714 C.ar    1  UNL1        0.0623
     31 N         143.5568  139.1030  165.1221 N.ar    1  UNL1       -0.2480
     32 C         142.4944  138.1328  165.5458 C.ar    1  UNL1        0.0984
     33 C         141.5985  137.5059  164.5190 C.ar    1  UNL1        0.0208
     34 C         141.7651  137.8492  163.0684 C.ar    1  UNL1        0.0058
     35 C         142.8276  138.8195  162.6446 C.ar    1  UNL1        0.0495
@<TRIPOS>BOND
     1    29    30    1
     2    30    31   ar
     3    31    32   ar
     4    32    33   ar
     5    33    34   ar
     6    34    35   ar
     7    35    23    1
     8    23    24   ar
     9    24    25   ar
    10    25    26   ar
    11    26    22    1
    12    22    21    1
    13    21    20    1
    14    20    19    1
    15    19     1    1
    16     1     2    1
    17     2     3    1
    18     3     4    1
    19     4     5   ar
    20     5     6   ar
    21     6     7   ar
    22     7     8   ar
    23     8     9   ar
    24     9    15    1
    25    15    16    1
    26    15    17    1
    27    15    18    1
    28     9    10   ar
    29    10    11   ar
    30    11    12   ar
    31    12    13    1
    32    13    14    1
    33    26    27   ar
    34    27    28    1
    35    35    30   ar
    36    27    23   ar
    37    14     1    1
    38    12     4   ar
    39    11     7   ar
@<TRIPOS>MOLECULE
*****
 35 39 0 0 0
SMALL
GASTEIGER

@<TRIPOS>ATOM
      1 N         143.7782  141.5106  160.4977 N.3     1  UNL1       -0.2720
      2 C         144.7446  142.2322  161.3897 C.3     1  UNL1        0.0768
      3 C         144.6885  142.4119  162.8779 C.3     1  UNL1        0.0434
      4 C         143.6523  141.9143  163.8415 C.ar    1  UNL1       -0.0231
      5 C         143.9762  142.3158  165.2501 C.ar    1  UNL1       -0.0013
      6 C         143.0640  141.9171  166.3722 C.ar    1  UNL1        0.0388
      7 C         141.8280  141.1170  166.0858 C.ar    1  UNL1        0.1643
      8 O         140.7485  140.5829  166.9799 O.2     1  UNL1       -0.4317
      9 C         139.7574  139.8512  166.1239 C.ar    1  UNL1        0.3031
     10 N         140.2244  139.9332  164.7008 N.ar    1  UNL1       -0.2053
     11 C         141.5041  140.7155  164.6772 C.ar    1  UNL1        0.1145
     12 C         142.4162  141.1142  163.5551 C.ar    1  UNL1       -0.0039
     13 C         141.9111  140.6140  162.2343 C.3     1  UNL1        0.0450
     14 C         142.5173  140.7905  160.8736 C.3     1  UNL1        0.0769
     15 C         138.5172  139.1592  166.6063 C.3     1  UNL1        0.4696
     16 F         137.2769  138.4671  167.0889 F       1  UNL1       -0.1619
     17 F         138.2783  138.6247  165.2253 F       1  UNL1       -0.1619
     18 F         138.7562  139.6937  167.9874 F       1  UNL1       -0.1619
     19 C         144.1179  141.5090  159.0367 C.3     1  UNL1        0.0730
     20 C         144.2415  142.8063  158.2940 C.3     1  UNL1        0.0294
     21 C         143.1103  143.2898  157.4355 C.3     1  UNL1        0.0666
     22 S         142.1544  144.3180  157.9637 S.3     1  UNL1       -0.0756
     23 C         139.3525  143.3901  160.4845 C.ar    1  UNL1        0.1680
     24 N         138.6911  143.0565  159.1801 N.ar    1  UNL1       -0.1282
     25 N         139.6602  143.3634  158.0771 N.ar    1  UNL1       -0.1221
     26 C         140.9205  143.8868  158.6998 C.ar    1  UNL1        0.1932
     27 N         140.7303  143.9033  160.1875 N.ar    1  UNL1       -0.2884
     28 C         141.7407  144.3539  161.2006 C.3     1  UNL1        0.1340
     29 C         138.3771  140.7046  161.3987 C.3     1  UNL1        0.0522
     30 C         138.2554  141.8947  162.3037 C.ar    1  UNL1        0.0623
     31 N         137.6459  141.7419  163.6658 N.ar    1  UNL1       -0.2480
     32 C         137.5242  142.9320  164.5706 C.ar    1  UNL1        0.0984
     33 C         138.0119  144.2748  164.1135 C.ar    1  UNL1        0.0208
     34 C         138.6213  144.4275  162.7514 C.ar    1  UNL1        0.0058
     35 C         138.7431  143.2374  161.8465 C.ar    1  UNL1        0.0495
@<TRIPOS>BOND
     1    29    30    1
     2    30    31   ar
     3    31    32   ar
     4    32    33   ar
     5    33    34   ar
     6    34    35   ar
     7    35    23    1
     8    23    24   ar
     9    24    25   ar
    10    25    26   ar
    11    26    22    1
    12    22    21    1
    13    21    20    1
    14    20    19    1
    15    19     1    1
    16     1     2    1
    17     2     3    1
    18     3     4    1
    19     4     5   ar
    20     5     6   ar
    21     6     7   ar
    22     7     8   ar
    23     8     9   ar
    24     9    15    1
    25    15    16    1
    26    15    17    1
    27    15    18    1
    28     9    10   ar
    29    10    11   ar
    30    11    12   ar
    31    12    13    1
    32    13    14    1
    33    26    27   ar
    34    27    28    1
    35    35    30   ar
    36    27    23   ar
    37    14     1    1
    38    12     4   ar
    39    11     7   ar
@<TRIPOS>MOLECULE
*****
 35 39 0 0 0
SMALL
GASTEIGER

@<TRIPOS>ATOM
      1 N         141.2173  138.5030  161.7091 N.3     1  UNL1       -0.2720
      2 C         139.8378  138.0630  162.1015 C.3     1  UNL1        0.0768
      3 C         139.1418  138.2320  163.4195 C.3     1  UNL1        0.0434
      4 C         139.6533  138.8824  164.6705 C.ar    1  UNL1       -0.0231
      5 C         138.6317  138.8383  165.7681 C.ar    1  UNL1       -0.0013
      6 C         138.9440  139.4364  167.1078 C.ar    1  UNL1        0.0388
      7 C         140.2777  140.0786  167.3500 C.ar    1  UNL1        0.1643
      8 O         140.8658  140.7461  168.5577 O.2     1  UNL1       -0.4317
      9 C         142.2508  141.2027  168.2066 C.ar    1  UNL1        0.3031
     10 N         142.5187  140.8175  166.7819 N.ar    1  UNL1       -0.2053
     11 C         141.2992  140.1228  166.2524 C.ar    1  UNL1        0.1145
     12 C         140.9870  139.5247  164.9127 C.ar    1  UNL1       -0.0039
     13 C         142.1387  139.6751  163.9636 C.3     1  UNL1        0.0450
     14 C         142.2411  139.2204  162.5378 C.3     1  UNL1        0.0769
     15 C         143.2011  141.9188  169.1199 C.3     1  UNL1        0.4696
     16 F         144.1515  142.6349  170.0332 F       1  UNL1       -0.1619
     17 F         143.7739  142.6560  167.9458 F       1  UNL1       -0.1619
     18 F         142.6283  141.1817  170.2940 F       1  UNL1       -0.1619
     19 C         141.6267  138.1831  160.3020 C.3     1  UNL1        0.0730
     20 C         142.8014  138.8828  159.6853 C.3     1  UNL1        0.0294
     21 C         142.6496  139.5848  158.3683 C.3     1  UNL1        0.0666
     22 S         142.1696  141.0053  158.3267 S.3     1  UNL1       -0.0756
     23 C         139.7993  142.3775  161.0770 C.ar    1  UNL1        0.1680
     24 N         138.8110  141.8501  160.0793 N.ar    1  UNL1       -0.1282
     25 N         139.5787  141.2719  158.9277 N.ar    1  UNL1       -0.1221
     26 C         141.0414  141.4419  159.2136 C.ar    1  UNL1        0.1932
     27 N         141.1776  142.1253  160.5419 N.ar    1  UNL1       -0.2884
     28 C         142.4662  142.4920  161.2167 C.3     1  UNL1        0.1340
     29 C         140.0265  145.3568  161.3450 C.3     1  UNL1        0.0522
     30 C         139.5810  144.5304  162.5149 C.ar    1  UNL1        0.0623
     31 N         139.2490  145.1936  163.8187 N.ar    1  UNL1       -0.2480
     32 C         138.8035  144.3672  164.9884 C.ar    1  UNL1        0.0984
     33 C         138.6898  142.8775  164.8544 C.ar    1  UNL1        0.0208
     34 C         139.0218  142.2143  163.5506 C.ar    1  UNL1        0.0058
     35 C         139.4674  143.0407  162.3808 C.ar    1  UNL1        0.0495
@<TRIPOS>BOND
     1    29    30    1
     2    30    31   ar
     3    31    32   ar
     4    32    33   ar
     5    33    34   ar
     6    34    35   ar
     7    35    23    1
     8    23    24   ar
     9    24    25   ar
    10    25    26   ar
    11    26    22    1
    12    22    21    1
    13    21    20    1
    14    20    19    1
    15    19     1    1
    16     1     2    1
    17     2     3    1
    18     3     4    1
    19     4     5   ar
    20     5     6   ar
    21     6     7   ar
    22     7     8   ar
    23     8     9   ar
    24     9    15    1
    25    15    16    1
    26    15    17    1
    27    15    18    1
    28     9    10   ar
    29    10    11   ar
    30    11    12   ar
    31    12    13    1
    32    13    14    1
    33    26    27   ar
    34    27    28    1
    35    35    30   ar
    36    27    23   ar
    37    14     1    1
    38    12     4   ar
    39    11     7   ar
