@<TRIPOS>MOLECULE
*****
 32 35 0 0 0
SMALL
GASTEIGER

@<TRIPOS>ATOM
      1 C         141.1268  140.0438  164.8550 C.ar    1  UNL1        0.1143
      2 C         141.8701  139.3274  165.9432 C.ar    1  UNL1        0.0850
      3 CL        142.7001  138.0891  165.7764 Cl      1  UNL1       -0.0799
      4 C         141.6377  140.0666  167.2276 C.ar    1  UNL1        0.0574
      5 C         142.1191  139.8229  168.6271 C.ar    1  UNL1        0.0631
      6 CL        143.0061  138.6496  168.9216 Cl      1  UNL1       -0.0821
      7 C         141.7136  140.7525  169.7322 C.ar    1  UNL1        0.0353
      8 C         140.8267  141.9258  169.4378 C.ar    1  UNL1        0.1366
      9 N         140.3453  142.1695  168.0382 N.ar    1  UNL1       -0.2236
     10 C         140.7508  141.2399  166.9331 C.ar    1  UNL1        0.1460
     11 N         140.4351  141.2257  165.4668 N.ar    1  UNL1       -0.3061
     12 C         139.5780  142.2193  164.7399 C.3     1  UNL1        0.1031
     13 C         138.2935  141.7779  164.1035 C.3     1  UNL1        0.0255
     14 C         137.4364  142.7714  163.3766 C.3     1  UNL1        0.0191
     15 C         137.8638  144.2064  163.2861 C.3     1  UNL1        0.0687
     16 N         139.1484  144.6478  163.9226 N.3     1  UNL1       -0.2959
     17 C         140.0055  143.6543  164.6494 C.3     1  UNL1        0.0914
     18 H         138.9088  145.3771  164.5942 H       1  UNL1        0.1233
     19 C         140.4211  142.8554  170.5430 C.2     1  UNL1        0.2606
     20 N         140.0967  144.2876  170.2372 N.am    1  UNL1       -0.3241
     21 O         140.3401  142.3528  171.9539 O.2     1  UNL1       -0.2687
     22 H         140.1499  144.6175  169.3112 H       1  UNL1        0.1453
     23 H         139.8306  144.8977  170.9626 H       1  UNL1        0.1453
     24 C         141.0392  139.2517  161.9627 C.1     1  UNL1       -0.0837
     25 C         141.0830  139.6477  163.4089 C.1     1  UNL1       -0.0460
     26 C         142.5043  137.6724  157.1419 C.3     1  UNL1        0.1149
     27 N         141.6688  138.1298  158.3007 N.am    1  UNL1       -0.2767
     28 C         142.1683  138.4344  159.6819 C.3     1  UNL1        0.1068
     29 C         140.9954  138.8557  160.5166 C.3     1  UNL1        0.0933
     30 C         139.7710  138.8114  159.6513 C.3     1  UNL1        0.0999
     31 C         140.1871  138.3627  158.2818 C.2     1  UNL1        0.2268
     32 O         139.2808  138.1793  157.1008 O.2     1  UNL1       -0.2748
@<TRIPOS>BOND
     1    26    27    1
     2    27    28    1
     3    28    29    1
     4    29    24    1
     5    24    25    3
     6    25     1    1
     7     1     2   ar
     8     2     3    1
     9     2     4   ar
    10     4     5   ar
    11     5     6    1
    12     5     7   ar
    13     7     8   ar
    14     8    19    1
    15    19    20   am
    16    19    21    2
    17     8     9   ar
    18     9    10   ar
    19    10    11   ar
    20    12    11    1
    21    12    13    1
    22    13    14    1
    23    14    15    1
    24    15    16    1
    25    16    17    1
    26    29    30    1
    27    30    31    1
    28    31    32    2
    29    31    27   am
    30    11     1   ar
    31    17    12    1
    32    10     4   ar
    33    20    22    1
    34    20    23    1
    35    16    18    1
@<TRIPOS>MOLECULE
*****
 32 35 0 0 0
SMALL
GASTEIGER

@<TRIPOS>ATOM
      1 C         141.3813  140.0913  164.9368 C.ar    1  UNL1        0.1143
      2 C         142.0501  139.3698  166.0692 C.ar    1  UNL1        0.0850
      3 CL        142.8850  138.1291  165.9534 Cl      1  UNL1       -0.0799
      4 C         141.7375  140.1070  167.3376 C.ar    1  UNL1        0.0574
      5 C         142.1264  139.8585  168.7648 C.ar    1  UNL1        0.0631
      6 CL        142.9885  138.6814  169.1132 Cl      1  UNL1       -0.0821
      7 C         141.6532  140.7870  169.8436 C.ar    1  UNL1        0.0353
      8 C         140.7912  141.9641  169.4952 C.ar    1  UNL1        0.1366
      9 N         140.4023  142.2126  168.0680 N.ar    1  UNL1       -0.2236
     10 C         140.8754  141.2840  166.9892 C.ar    1  UNL1        0.1460
     11 N         140.6553  141.2743  165.5055 N.ar    1  UNL1       -0.3061
     12 C         139.8505  142.2725  164.7270 C.3     1  UNL1        0.1031
     13 C         138.4879  141.9048  164.2191 C.3     1  UNL1        0.0255
     14 C         137.6831  142.9030  163.4407 C.3     1  UNL1        0.0191
     15 C         138.2409  144.2689  163.1702 C.3     1  UNL1        0.0687
     16 N         139.6035  144.6366  163.6781 N.3     1  UNL1       -0.2959
     17 C         140.4083  143.6385  164.4565 C.3     1  UNL1        0.0914
     18 H         139.4834  145.4515  164.2797 H       1  UNL1        0.1233
     19 C         140.3180  142.8926  170.5741 C.2     1  UNL1        0.2606
     20 N         140.0150  144.3256  170.2507 N.am    1  UNL1       -0.3241
     21 O         140.1480  142.3881  171.9765 O.2     1  UNL1       -0.2687
     22 H         140.1266  144.6567  169.3303 H       1  UNL1        0.1453
     23 H         139.7044  144.9350  170.9588 H       1  UNL1        0.1453
     24 C         141.4786  139.3061  162.0431 C.1     1  UNL1       -0.0837
     25 C         141.4300  139.6987  163.4900 C.1     1  UNL1       -0.0460
     26 C         140.0106  137.9833  157.1465 C.3     1  UNL1        0.1149
     27 N         140.8525  138.3054  158.3454 N.am    1  UNL1       -0.2767
     28 C         140.3430  138.6765  159.7066 C.3     1  UNL1        0.1068
     29 C         141.5273  138.9134  160.5962 C.3     1  UNL1        0.0933
     30 C         142.7687  138.6888  159.7848 C.3     1  UNL1        0.0999
     31 C         142.3517  138.3131  158.3938 C.2     1  UNL1        0.2268
     32 O         143.2723  137.9999  157.2517 O.2     1  UNL1       -0.2748
@<TRIPOS>BOND
     1    26    27    1
     2    27    28    1
     3    28    29    1
     4    29    24    1
     5    24    25    3
     6    25     1    1
     7     1     2   ar
     8     2     3    1
     9     2     4   ar
    10     4     5   ar
    11     5     6    1
    12     5     7   ar
    13     7     8   ar
    14     8    19    1
    15    19    20   am
    16    19    21    2
    17     8     9   ar
    18     9    10   ar
    19    10    11   ar
    20    12    11    1
    21    12    13    1
    22    13    14    1
    23    14    15    1
    24    15    16    1
    25    16    17    1
    26    29    30    1
    27    30    31    1
    28    31    32    2
    29    31    27   am
    30    11     1   ar
    31    17    12    1
    32    10     4   ar
    33    20    22    1
    34    20    23    1
    35    16    18    1
@<TRIPOS>MOLECULE
*****
 32 35 0 0 0
SMALL
GASTEIGER

@<TRIPOS>ATOM
      1 C         139.8901  141.3973  164.7117 C.ar    1  UNL1        0.1143
      2 C         139.2055  140.6134  165.7919 C.ar    1  UNL1        0.0850
      3 CL        138.0522  139.6730  165.6028 Cl      1  UNL1       -0.0799
      4 C         139.8766  140.9348  167.0943 C.ar    1  UNL1        0.0574
      5 C         139.6287  140.4598  168.4952 C.ar    1  UNL1        0.0631
      6 CL        138.5292  139.4772  168.7705 Cl      1  UNL1       -0.0821
      7 C         140.4801  140.9673  169.6210 C.ar    1  UNL1        0.0353
      8 C         141.5795  141.9500  169.3458 C.ar    1  UNL1        0.1366
      9 N         141.8275  142.4250  167.9448 N.ar    1  UNL1       -0.2236
     10 C         140.9760  141.9175  166.8190 C.ar    1  UNL1        0.1460
     11 N         140.9843  142.2033  165.3465 N.ar    1  UNL1       -0.3061
     12 C         141.9223  143.1320  164.6340 C.3     1  UNL1        0.1031
     13 C         143.3631  142.7538  164.4587 C.3     1  UNL1        0.0255
     14 C         144.3010  143.6825  163.7461 C.3     1  UNL1        0.0191
     15 C         143.7981  144.9896  163.2089 C.3     1  UNL1        0.0687
     16 N         142.3572  145.3679  163.3842 N.3     1  UNL1       -0.2959
     17 C         141.4193  144.4391  164.0967 C.3     1  UNL1        0.0914
     18 H         141.9749  145.5125  162.4496 H       1  UNL1        0.1233
     19 C         142.4310  142.4575  170.4716 C.2     1  UNL1        0.2606
     20 N         143.8250  142.9398  170.1992 N.am    1  UNL1       -0.3241
     21 O         141.8884  142.4828  171.8698 O.2     1  UNL1       -0.2687
     22 H         144.1810  142.9232  169.2815 H       1  UNL1        0.1453
     23 H         144.3838  143.2729  170.9381 H       1  UNL1        0.1453
     24 C         139.1932  141.3598  161.7940 C.1     1  UNL1       -0.0837
     25 C         139.5416  141.3785  163.2528 C.1     1  UNL1       -0.0460
     26 C         137.9643  142.9274  156.9039 C.3     1  UNL1        0.1149
     27 N         138.2799  142.0616  158.0874 N.am    1  UNL1       -0.2767
     28 C         138.5936  142.5426  159.4731 C.3     1  UNL1        0.1068
     29 C         138.8447  141.3410  160.3351 C.3     1  UNL1        0.0933
     30 C         138.6863  140.1174  159.4822 C.3     1  UNL1        0.0999
     31 C         138.3372  140.5627  158.0930 C.2     1  UNL1        0.2268
     32 O         138.0890  139.6665  156.9160 O.2     1  UNL1       -0.2748
@<TRIPOS>BOND
     1    26    27    1
     2    27    28    1
     3    28    29    1
     4    29    24    1
     5    24    25    3
     6    25     1    1
     7     1     2   ar
     8     2     3    1
     9     2     4   ar
    10     4     5   ar
    11     5     6    1
    12     5     7   ar
    13     7     8   ar
    14     8    19    1
    15    19    20   am
    16    19    21    2
    17     8     9   ar
    18     9    10   ar
    19    10    11   ar
    20    12    11    1
    21    12    13    1
    22    13    14    1
    23    14    15    1
    24    15    16    1
    25    16    17    1
    26    29    30    1
    27    30    31    1
    28    31    32    2
    29    31    27   am
    30    11     1   ar
    31    17    12    1
    32    10     4   ar
    33    20    22    1
    34    20    23    1
    35    16    18    1
@<TRIPOS>MOLECULE
*****
 32 35 0 0 0
SMALL
GASTEIGER

@<TRIPOS>ATOM
      1 C         142.3177  141.1939  164.4763 C.ar    1  UNL1        0.1143
      2 C         142.6610  140.2607  165.5994 C.ar    1  UNL1        0.0850
      3 CL        143.4421  138.9858  165.4789 Cl      1  UNL1       -0.0799
      4 C         142.0861  140.8262  166.8642 C.ar    1  UNL1        0.0574
      5 C         142.1084  140.3388  168.2826 C.ar    1  UNL1        0.0631
      6 CL        142.8071  139.0561  168.6240 Cl      1  UNL1       -0.0821
      7 C         141.4322  141.1342  169.3596 C.ar    1  UNL1        0.0353
      8 C         140.7335  142.4169  169.0182 C.ar    1  UNL1        0.1366
      9 N         140.7111  142.9043  167.5998 N.ar    1  UNL1       -0.2236
     10 C         141.3874  142.1089  166.5228 C.ar    1  UNL1        0.1460
     11 N         141.5306  142.3362  165.0470 N.ar    1  UNL1       -0.3061
     12 C         140.9828  143.5012  164.2772 C.3     1  UNL1        0.1031
     13 C         139.5491  143.5014  163.8362 C.3     1  UNL1        0.0255
     14 C         139.0013  144.6664  163.0664 C.3     1  UNL1        0.0191
     15 C         139.8872  145.8312  162.7374 C.3     1  UNL1        0.0687
     16 N         141.3210  145.8311  163.1783 N.3     1  UNL1       -0.2959
     17 C         141.8688  144.6661  163.9482 C.3     1  UNL1        0.0914
     18 H         141.4493  146.6569  163.7630 H       1  UNL1        0.1233
     19 C         140.0572  143.2122  170.0954 C.2     1  UNL1        0.2606
     20 N         140.3085  144.6866  170.2089 N.am    1  UNL1       -0.3241
     21 O         139.1296  142.5331  171.0589 O.2     1  UNL1       -0.2687
     22 H         140.9174  145.1324  169.5765 H       1  UNL1        0.1453
     23 H         139.8647  145.2086  170.9159 H       1  UNL1        0.1453
     24 C         143.0728  140.8383  161.5948 C.1     1  UNL1       -0.0837
     25 C         142.6952  141.0161  163.0355 C.1     1  UNL1       -0.0460
     26 C         144.9680  141.7475  156.7509 C.3     1  UNL1        0.1149
     27 N         144.3214  141.0784  157.9275 N.am    1  UNL1       -0.2767
     28 C         144.1417  141.6749  159.2920 C.3     1  UNL1        0.1068
     29 C         143.4503  140.6605  160.1540 C.3     1  UNL1        0.0933
     30 C         143.2027  139.4370  159.3222 C.3     1  UNL1        0.0999
     31 C         143.7411  139.6953  157.9461 C.2     1  UNL1        0.2268
     32 O         143.7054  138.7385  156.7915 O.2     1  UNL1       -0.2748
@<TRIPOS>BOND
     1    26    27    1
     2    27    28    1
     3    28    29    1
     4    29    24    1
     5    24    25    3
     6    25     1    1
     7     1     2   ar
     8     2     3    1
     9     2     4   ar
    10     4     5   ar
    11     5     6    1
    12     5     7   ar
    13     7     8   ar
    14     8    19    1
    15    19    20   am
    16    19    21    2
    17     8     9   ar
    18     9    10   ar
    19    10    11   ar
    20    12    11    1
    21    12    13    1
    22    13    14    1
    23    14    15    1
    24    15    16    1
    25    16    17    1
    26    29    30    1
    27    30    31    1
    28    31    32    2
    29    31    27   am
    30    11     1   ar
    31    17    12    1
    32    10     4   ar
    33    20    22    1
    34    20    23    1
    35    16    18    1
@<TRIPOS>MOLECULE
*****
 32 35 0 0 0
SMALL
GASTEIGER

@<TRIPOS>ATOM
      1 C         140.8150  139.5427  164.2422 C.ar    1  UNL1        0.1143
      2 C         139.6511  139.1130  165.0852 C.ar    1  UNL1        0.0850
      3 CL        138.5002  138.2641  164.6325 Cl      1  UNL1       -0.0799
      4 C         139.8400  139.6813  166.4605 C.ar    1  UNL1        0.0574
      5 C         139.0113  139.5887  167.7073 C.ar    1  UNL1        0.0631
      6 CL        137.7306  138.8078  167.7004 Cl      1  UNL1       -0.0821
      7 C         139.4633  140.2769  168.9611 C.ar    1  UNL1        0.0353
      8 C         140.7440  141.0578  168.9680 C.ar    1  UNL1        0.1366
      9 N         141.5726  141.1505  167.7212 N.ar    1  UNL1       -0.2236
     10 C         141.1206  140.4622  166.4674 C.ar    1  UNL1        0.1460
     11 N         141.7232  140.3765  165.0964 N.ar    1  UNL1       -0.3061
     12 C         143.0084  141.0130  164.6569 C.3     1  UNL1        0.1031
     13 C         144.2315  140.1693  164.4520 C.3     1  UNL1        0.0255
     14 C         145.5167  140.8057  164.0124 C.3     1  UNL1        0.0191
     15 C         145.5788  142.2860  163.7778 C.3     1  UNL1        0.0687
     16 N         144.3557  143.1297  163.9828 N.3     1  UNL1       -0.2959
     17 C         143.0705  142.4933  164.4223 C.3     1  UNL1        0.0914
     18 H         144.1658  143.5937  163.0945 H       1  UNL1        0.1233
     19 C         141.1959  141.7460  170.2219 C.2     1  UNL1        0.2606
     20 N         142.1306  142.9163  170.1399 N.am    1  UNL1       -0.3241
     21 O         140.7132  141.2639  171.5578 O.2     1  UNL1       -0.2687
     22 H         142.4475  143.2327  169.2631 H       1  UNL1        0.1453
     23 H         142.4273  143.3680  170.9628 H       1  UNL1        0.1453
     24 C         141.2499  138.8550  161.3546 C.1     1  UNL1       -0.0837
     25 C         141.0324  139.1988  162.7984 C.1     1  UNL1       -0.0460
     26 C         140.4128  138.0398  156.2053 C.3     1  UNL1        0.1149
     27 N         141.0826  138.1364  157.5439 N.am    1  UNL1       -0.2767
     28 C         140.4312  138.5588  158.8274 C.3     1  UNL1        0.1068
     29 C         141.4674  138.5111  159.9109 C.3     1  UNL1        0.0933
     30 C         142.7593  138.0592  159.2971 C.3     1  UNL1        0.0999
     31 C         142.5215  137.8276  157.8342 C.2     1  UNL1        0.2268
     32 O         143.5432  137.3679  156.8368 O.2     1  UNL1       -0.2748
@<TRIPOS>BOND
     1    26    27    1
     2    27    28    1
     3    28    29    1
     4    29    24    1
     5    24    25    3
     6    25     1    1
     7     1     2   ar
     8     2     3    1
     9     2     4   ar
    10     4     5   ar
    11     5     6    1
    12     5     7   ar
    13     7     8   ar
    14     8    19    1
    15    19    20   am
    16    19    21    2
    17     8     9   ar
    18     9    10   ar
    19    10    11   ar
    20    12    11    1
    21    12    13    1
    22    13    14    1
    23    14    15    1
    24    15    16    1
    25    16    17    1
    26    29    30    1
    27    30    31    1
    28    31    32    2
    29    31    27   am
    30    11     1   ar
    31    17    12    1
    32    10     4   ar
    33    20    22    1
    34    20    23    1
    35    16    18    1
@<TRIPOS>MOLECULE
*****
 32 35 0 0 0
SMALL
GASTEIGER

@<TRIPOS>ATOM
      1 C         140.4996  140.3090  164.4372 C.ar    1  UNL1        0.1143
      2 C         139.6811  139.7099  165.5422 C.ar    1  UNL1        0.0850
      3 CL        138.7930  138.5065  165.4287 Cl      1  UNL1       -0.0799
      4 C         139.9068  140.5255  166.7808 C.ar    1  UNL1        0.0574
      5 C         139.3637  140.4061  168.1739 C.ar    1  UNL1        0.0631
      6 CL        138.4058  139.3029  168.5135 Cl      1  UNL1       -0.0821
      7 C         139.7786  141.3899  169.2274 C.ar    1  UNL1        0.0353
      8 C         140.7365  142.4931  168.8878 C.ar    1  UNL1        0.1366
      9 N         141.2796  142.6125  167.4947 N.ar    1  UNL1       -0.2236
     10 C         140.8647  141.6287  166.4412 C.ar    1  UNL1        0.1460
     11 N         141.2311  141.4949  164.9928 N.ar    1  UNL1       -0.3061
     12 C         142.1650  142.3899  164.2333 C.3     1  UNL1        0.1031
     13 C         143.6448  142.2936  164.4582 C.3     1  UNL1        0.0255
     14 C         144.5788  143.1886  163.6987 C.3     1  UNL1        0.0191
     15 C         144.0328  144.1799  162.7143 C.3     1  UNL1        0.0687
     16 N         142.5529  144.2762  162.4893 N.3     1  UNL1       -0.2959
     17 C         141.6190  143.3813  163.2488 C.3     1  UNL1        0.0914
     18 H         142.3933  144.0953  161.4982 H       1  UNL1        0.1233
     19 C         141.1514  143.4770  169.9414 C.2     1  UNL1        0.2606
     20 N         140.2607  144.6361  170.2775 N.am    1  UNL1       -0.3241
     21 O         142.4569  143.3016  170.6588 O.2     1  UNL1       -0.2687
     22 H         139.4038  144.7512  169.8066 H       1  UNL1        0.1453
     23 H         140.5330  145.2819  170.9689 H       1  UNL1        0.1453
     24 C         140.6476  139.3108  161.6120 C.1     1  UNL1       -0.0837
     25 C         140.5736  139.8099  163.0246 C.1     1  UNL1       -0.0460
     26 C         142.5154  137.4984  157.0177 C.3     1  UNL1        0.1149
     27 N         141.5801  137.9786  158.0876 N.am    1  UNL1       -0.2767
     28 C         141.9699  138.4131  159.4694 C.3     1  UNL1        0.1068
     29 C         140.7217  138.8117  160.1994 C.3     1  UNL1        0.0933
     30 C         139.5604  138.6235  159.2688 C.3     1  UNL1        0.0999
     31 C         140.0909  138.1086  157.9636 C.2     1  UNL1        0.2268
     32 O         139.2755  137.7813  156.7480 O.2     1  UNL1       -0.2748
@<TRIPOS>BOND
     1    26    27    1
     2    27    28    1
     3    28    29    1
     4    29    24    1
     5    24    25    3
     6    25     1    1
     7     1     2   ar
     8     2     3    1
     9     2     4   ar
    10     4     5   ar
    11     5     6    1
    12     5     7   ar
    13     7     8   ar
    14     8    19    1
    15    19    20   am
    16    19    21    2
    17     8     9   ar
    18     9    10   ar
    19    10    11   ar
    20    12    11    1
    21    12    13    1
    22    13    14    1
    23    14    15    1
    24    15    16    1
    25    16    17    1
    26    29    30    1
    27    30    31    1
    28    31    32    2
    29    31    27   am
    30    11     1   ar
    31    17    12    1
    32    10     4   ar
    33    20    22    1
    34    20    23    1
    35    16    18    1
@<TRIPOS>MOLECULE
*****
 32 35 0 0 0
SMALL
GASTEIGER

@<TRIPOS>ATOM
      1 C         141.0511  142.3407  164.5911 C.ar    1  UNL1        0.1143
      2 C         140.5709  143.0142  165.8424 C.ar    1  UNL1        0.0850
      3 CL        139.7261  144.2519  165.9090 Cl      1  UNL1       -0.0799
      4 C         141.0838  142.2327  167.0156 C.ar    1  UNL1        0.0574
      5 C         140.9279  142.4248  168.4950 C.ar    1  UNL1        0.0631
      6 CL        140.1307  143.5813  169.0213 Cl      1  UNL1       -0.0821
      7 C         141.5692  141.4603  169.4482 C.ar    1  UNL1        0.0353
      8 C         142.3664  140.3038  168.9219 C.ar    1  UNL1        0.1366
      9 N         142.5223  140.1118  167.4425 N.ar    1  UNL1       -0.2236
     10 C         141.8810  141.0762  166.4893 C.ar    1  UNL1        0.1460
     11 N         141.8607  141.1429  164.9909 N.ar    1  UNL1       -0.3061
     12 C         142.5323  140.1808  164.0564 C.3     1  UNL1        0.1031
     13 C         141.7469  139.0609  163.4410 C.3     1  UNL1        0.0255
     14 C         142.4185  138.0988  162.5065 C.3     1  UNL1        0.0191
     15 C         143.8756  138.2566  162.1874 C.3     1  UNL1        0.0687
     16 N         144.6611  139.3765  162.8028 N.3     1  UNL1       -0.2959
     17 C         143.9896  140.3386  163.7373 C.3     1  UNL1        0.0914
     18 H         145.0390  139.9289  162.0330 H       1  UNL1        0.1233
     19 C         143.0077  139.3394  169.8751 C.2     1  UNL1        0.2606
     20 N         143.3992  139.7925  171.2504 N.am    1  UNL1       -0.3241
     21 O         143.2575  137.9218  169.4530 O.2     1  UNL1       -0.2687
     22 H         143.2353  140.7229  171.5274 H       1  UNL1        0.1453
     23 H         143.8202  139.1595  171.8760 H       1  UNL1        0.1453
     24 C         140.4905  143.2325  161.7821 C.1     1  UNL1       -0.0837
     25 C         140.7708  142.7866  163.1866 C.1     1  UNL1       -0.0460
     26 C         138.8077  143.3053  156.7778 C.3     1  UNL1        0.1149
     27 N         139.4367  143.7119  158.0774 N.am    1  UNL1       -0.2767
     28 C         139.4918  142.8844  159.3272 C.3     1  UNL1        0.1068
     29 C         140.2103  143.6785  160.3776 C.3     1  UNL1        0.0933
     30 C         140.5992  144.9967  159.7769 C.3     1  UNL1        0.0999
     31 C         140.1212  145.0174  158.3553 C.2     1  UNL1        0.2268
     32 O         140.2968  146.1455  157.3824 O.2     1  UNL1       -0.2748
@<TRIPOS>BOND
     1    26    27    1
     2    27    28    1
     3    28    29    1
     4    29    24    1
     5    24    25    3
     6    25     1    1
     7     1     2   ar
     8     2     3    1
     9     2     4   ar
    10     4     5   ar
    11     5     6    1
    12     5     7   ar
    13     7     8   ar
    14     8    19    1
    15    19    20   am
    16    19    21    2
    17     8     9   ar
    18     9    10   ar
    19    10    11   ar
    20    12    11    1
    21    12    13    1
    22    13    14    1
    23    14    15    1
    24    15    16    1
    25    16    17    1
    26    29    30    1
    27    30    31    1
    28    31    32    2
    29    31    27   am
    30    11     1   ar
    31    17    12    1
    32    10     4   ar
    33    20    22    1
    34    20    23    1
    35    16    18    1
@<TRIPOS>MOLECULE
*****
 32 35 0 0 0
SMALL
GASTEIGER

@<TRIPOS>ATOM
      1 C         141.0723  142.6339  163.5691 C.ar    1  UNL1        0.1143
      2 C         140.4596  143.9688  163.2646 C.ar    1  UNL1        0.0850
      3 CL        139.7701  144.8674  164.2479 Cl      1  UNL1       -0.0799
      4 C         140.6576  144.2473  161.8040 C.ar    1  UNL1        0.0574
      5 C         140.2636  145.4095  160.9414 C.ar    1  UNL1        0.0631
      6 CL        139.5286  146.5722  161.5395 Cl      1  UNL1       -0.0821
      7 C         140.6046  145.4089  159.4807 C.ar    1  UNL1        0.0353
      8 C         141.3396  144.2461  158.8826 C.ar    1  UNL1        0.1366
      9 N         141.7336  143.0839  159.7452 N.ar    1  UNL1       -0.2236
     10 C         141.3927  143.0846  161.2059 C.ar    1  UNL1        0.1460
     11 N         141.6489  142.0875  162.2968 N.ar    1  UNL1       -0.3061
     12 C         142.3574  140.7744  162.1425 C.3     1  UNL1        0.1031
     13 C         141.5699  139.4989  162.0888 C.3     1  UNL1        0.0255
     14 C         142.2784  138.1858  161.9345 C.3     1  UNL1        0.0191
     15 C         143.7745  138.1482  161.8337 C.3     1  UNL1        0.0687
     16 N         144.5621  139.4236  161.8874 N.3     1  UNL1       -0.2959
     17 C         143.8536  140.7367  162.0417 C.3     1  UNL1        0.0914
     18 H         145.0955  139.4771  161.0195 H       1  UNL1        0.1233
     19 C         141.6806  144.2455  157.4218 C.2     1  UNL1        0.2606
     20 N         142.6350  145.2648  156.8740 N.am    1  UNL1       -0.3241
     21 O         141.0671  143.2256  156.5089 O.2     1  UNL1       -0.2687
     22 H         143.0376  145.9342  157.4732 H       1  UNL1        0.1453
     23 H         142.8587  145.2645  155.9153 H       1  UNL1        0.1453
     24 C         141.1335  141.2927  166.2519 C.1     1  UNL1       -0.0837
     25 C         141.1029  141.9633  164.9105 C.1     1  UNL1       -0.0460
     26 C         142.7188  138.4524  170.4113 C.3     1  UNL1        0.1149
     27 N         141.8928  139.3165  169.5052 N.am    1  UNL1       -0.2767
     28 C         142.2849  139.7853  168.1353 C.3     1  UNL1        0.1068
     29 C         141.1642  140.6220  167.5933 C.3     1  UNL1        0.0933
     30 C         140.0794  140.6704  168.6282 C.3     1  UNL1        0.0999
     31 C         140.5298  139.8636  169.8098 C.2     1  UNL1        0.2268
     32 O         139.7533  139.6426  171.0741 O.2     1  UNL1       -0.2748
@<TRIPOS>BOND
     1    26    27    1
     2    27    28    1
     3    28    29    1
     4    29    24    1
     5    24    25    3
     6    25     1    1
     7     1     2   ar
     8     2     3    1
     9     2     4   ar
    10     4     5   ar
    11     5     6    1
    12     5     7   ar
    13     7     8   ar
    14     8    19    1
    15    19    20   am
    16    19    21    2
    17     8     9   ar
    18     9    10   ar
    19    10    11   ar
    20    12    11    1
    21    12    13    1
    22    13    14    1
    23    14    15    1
    24    15    16    1
    25    16    17    1
    26    29    30    1
    27    30    31    1
    28    31    32    2
    29    31    27   am
    30    11     1   ar
    31    17    12    1
    32    10     4   ar
    33    20    22    1
    34    20    23    1
    35    16    18    1
@<TRIPOS>MOLECULE
*****
 32 35 0 0 0
SMALL
GASTEIGER

@<TRIPOS>ATOM
      1 C         142.1190  141.8559  164.6612 C.ar    1  UNL1        0.1143
      2 C         142.9147  142.2713  165.8630 C.ar    1  UNL1        0.0850
      3 CL        144.1968  143.0498  165.8454 Cl      1  UNL1       -0.0799
      4 C         142.2033  141.7716  167.0854 C.ar    1  UNL1        0.0574
      5 C         142.5209  141.8825  168.5471 C.ar    1  UNL1        0.0631
      6 CL        143.7563  142.6068  168.9934 Cl      1  UNL1       -0.0821
      7 C         141.6031  141.2691  169.5626 C.ar    1  UNL1        0.0353
      8 C         140.3677  140.5448  169.1163 C.ar    1  UNL1        0.1366
      9 N         140.0501  140.4339  167.6546 N.ar    1  UNL1       -0.2236
     10 C         140.9679  141.0473  166.6391 C.ar    1  UNL1        0.1460
     11 N         140.9158  141.0994  165.1409 N.ar    1  UNL1       -0.3061
     12 C         139.8479  140.5002  164.2745 C.3     1  UNL1        0.1031
     13 C         140.1335  139.2589  163.4825 C.3     1  UNL1        0.0255
     14 C         139.0656  138.6596  162.6161 C.3     1  UNL1        0.0191
     15 C         137.7121  139.3019  162.5417 C.3     1  UNL1        0.0687
     16 N         137.4265  140.5433  163.3337 N.3     1  UNL1       -0.2959
     17 C         138.4943  141.1425  164.2001 C.3     1  UNL1        0.0914
     18 H         136.6382  140.3282  163.9443 H       1  UNL1        0.1233
     19 C         139.4498  139.9314  170.1319 C.2     1  UNL1        0.2606
     20 N         139.9819  139.5216  171.4731 N.am    1  UNL1       -0.3241
     21 O         137.9998  139.7280  169.8063 O.2     1  UNL1       -0.2687
     22 H         140.9336  139.6551  171.6868 H       1  UNL1        0.1453
     23 H         139.3795  139.1190  172.1396 H       1  UNL1        0.1453
     24 C         142.8121  142.4361  161.8006 C.1     1  UNL1       -0.0837
     25 C         142.4655  142.1460  163.2309 C.1     1  UNL1       -0.0460
     26 C         145.2770  142.4345  157.1310 C.3     1  UNL1        0.1149
     27 N         144.2917  142.7255  158.2239 N.am    1  UNL1       -0.2767
     28 C         144.3326  142.1732  159.6180 C.3     1  UNL1        0.1068
     29 C         143.1587  142.7262  160.3703 C.3     1  UNL1        0.0933
     30 C         142.3922  143.6203  159.4413 C.3     1  UNL1        0.0999
     31 C         143.0924  143.6198  158.1147 C.2     1  UNL1        0.2268
     32 O         142.6679  144.3802  156.8934 O.2     1  UNL1       -0.2748
@<TRIPOS>BOND
     1    26    27    1
     2    27    28    1
     3    28    29    1
     4    29    24    1
     5    24    25    3
     6    25     1    1
     7     1     2   ar
     8     2     3    1
     9     2     4   ar
    10     4     5   ar
    11     5     6    1
    12     5     7   ar
    13     7     8   ar
    14     8    19    1
    15    19    20   am
    16    19    21    2
    17     8     9   ar
    18     9    10   ar
    19    10    11   ar
    20    12    11    1
    21    12    13    1
    22    13    14    1
    23    14    15    1
    24    15    16    1
    25    16    17    1
    26    29    30    1
    27    30    31    1
    28    31    32    2
    29    31    27   am
    30    11     1   ar
    31    17    12    1
    32    10     4   ar
    33    20    22    1
    34    20    23    1
    35    16    18    1
