@<TRIPOS>MOLECULE
*****
 29 31 0 0 0
SMALL
GASTEIGER

@<TRIPOS>ATOM
      1 N         140.8831  143.0099  165.0717 N.3     1  UNL1       -0.2725
      2 C         139.3948  143.0972  164.9057 C.3     1  UNL1        0.0749
      3 C         138.8059  144.0532  163.9111 C.3     1  UNL1        0.0517
      4 C         139.7053  144.9220  163.0825 C.3     1  UNL1        0.1544
      5 F         138.3681  145.3643  162.5665 F       1  UNL1       -0.2382
      6 C         141.1935  144.8347  163.2486 C.3     1  UNL1        0.0517
      7 C         141.7824  143.8787  164.2432 C.3     1  UNL1        0.0749
      8 C         141.4720  142.0539  166.0663 C.3     1  UNL1        0.0722
      9 C         139.4753  142.9121  171.0844 C.3     1  UNL1        0.0296
     10 C         140.0170  142.6608  169.7084 C.3     1  UNL1        0.0930
     11 C         140.4524  144.0829  169.9040 C.3     1  UNL1        0.0296
     12 C         140.7098  142.9034  168.4003 C.3     1  UNL1        0.0287
     13 C         140.7791  141.8112  167.3744 C.3     1  UNL1        0.0208
     14 C         140.1557  140.4765  167.6566 C.3     1  UNL1        0.0335
     15 C         139.4628  140.2339  168.9647 C.3     1  UNL1        0.1420
     16 O         139.3935  141.3261  169.9906 O.3     1  UNL1       -0.3585
     17 C         140.1403  145.9444  162.0747 C.3     1  UNL1        0.1224
     18 N         139.6612  145.8504  160.6564 N.am    1  UNL1       -0.2984
     19 C         140.5831  145.3480  159.5851 C.2     1  UNL1        0.2460
     20 O         141.9841  144.9396  159.9322 O.2     1  UNL1       -0.2701
     21 H         138.7417  146.1185  160.4287 H       1  UNL1        0.1498
     22 C         140.1042  145.2540  158.1668 C.ar    1  UNL1        0.0550
     23 C         139.9684  146.4963  157.3372 C.ar    1  UNL1        0.0160
     24 C         139.4894  146.4024  155.9188 C.ar    1  UNL1        0.0587
     25 CL        139.3536  147.6447  155.0892 Cl      1  UNL1       -0.0822
     26 C         139.1461  145.0661  155.3301 C.ar    1  UNL1        0.0228
     27 C         139.2819  143.8239  156.1597 C.ar    1  UNL1        0.0587
     28 CL        138.9387  142.4876  155.5710 Cl      1  UNL1       -0.0822
     29 C         139.7609  143.9177  157.5781 C.ar    1  UNL1        0.0160
@<TRIPOS>BOND
     1     9    10    1
     2    10    11    1
     3    10    12    1
     4    12    13    1
     5    13     8    1
     6     8     1    1
     7     1     2    1
     8     2     3    1
     9     3     4    1
    10     4     5    1
    11     4    17    1
    12    17    18    1
    13    18    19   am
    14    19    20    2
    15    19    22    1
    16    22    23   ar
    17    23    24   ar
    18    24    25    1
    19    24    26   ar
    20    26    27   ar
    21    27    28    1
    22    27    29   ar
    23     4     6    1
    24     6     7    1
    25    13    14    1
    26    14    15    1
    27    15    16    1
    28    16    10    1
    29     7     1    1
    30    29    22   ar
    31    18    21    1
@<TRIPOS>MOLECULE
*****
 29 31 0 0 0
SMALL
GASTEIGER

@<TRIPOS>ATOM
      1 N         142.5949  141.9054  165.5138 N.3     1  UNL1       -0.2725
      2 C         143.8347  142.7497  165.4997 C.3     1  UNL1        0.0749
      3 C         143.8934  143.9817  164.6460 C.3     1  UNL1        0.0517
      4 C         142.7123  144.3694  163.8065 C.3     1  UNL1        0.1544
      5 F         143.6556  145.4827  163.4589 F       1  UNL1       -0.2382
      6 C         141.4726  143.5251  163.8207 C.3     1  UNL1        0.0517
      7 C         141.4139  142.2931  164.6743 C.3     1  UNL1        0.0749
      8 C         142.5362  140.6734  166.3674 C.3     1  UNL1        0.0722
      9 C         137.5795  138.4600  167.0282 C.3     1  UNL1        0.0296
     10 C         138.9387  139.0727  166.8630 C.3     1  UNL1        0.0930
     11 C         138.7506  138.4838  165.4963 C.3     1  UNL1        0.0296
     12 C         140.2325  139.4809  166.2231 C.3     1  UNL1        0.0287
     13 C         141.2424  140.2652  167.0073 C.3     1  UNL1        0.0208
     14 C         140.9584  140.6414  168.4313 C.3     1  UNL1        0.0335
     15 C         139.6646  140.2332  169.0712 C.3     1  UNL1        0.1420
     16 O         138.6547  139.4489  168.2870 O.3     1  UNL1       -0.3585
     17 C         141.8588  145.1438  162.8463 C.3     1  UNL1        0.1224
     18 N         142.0908  145.0209  161.3695 N.am    1  UNL1       -0.2984
     19 C         140.9645  145.2684  160.4102 C.2     1  UNL1        0.2460
     20 O         139.6062  145.6389  160.9279 O.2     1  UNL1       -0.2701
     21 H         142.9823  144.7777  161.0298 H       1  UNL1        0.1498
     22 C         141.1964  145.1455  158.9334 C.ar    1  UNL1        0.0550
     23 C         140.4137  145.9967  157.9779 C.ar    1  UNL1        0.0160
     24 C         140.6456  145.8739  156.5010 C.ar    1  UNL1        0.0587
     25 CL        139.8629  146.7251  155.5456 Cl      1  UNL1       -0.0822
     26 C         141.6601  144.8998  155.9796 C.ar    1  UNL1        0.0228
     27 C         142.4428  144.0486  156.9351 C.ar    1  UNL1        0.0587
     28 CL        143.4573  143.0745  156.4137 Cl      1  UNL1       -0.0822
     29 C         142.2109  144.1714  158.4120 C.ar    1  UNL1        0.0160
@<TRIPOS>BOND
     1     9    10    1
     2    10    11    1
     3    10    12    1
     4    12    13    1
     5    13     8    1
     6     8     1    1
     7     1     2    1
     8     2     3    1
     9     3     4    1
    10     4     5    1
    11     4    17    1
    12    17    18    1
    13    18    19   am
    14    19    20    2
    15    19    22    1
    16    22    23   ar
    17    23    24   ar
    18    24    25    1
    19    24    26   ar
    20    26    27   ar
    21    27    28    1
    22    27    29   ar
    23     4     6    1
    24     6     7    1
    25    13    14    1
    26    14    15    1
    27    15    16    1
    28    16    10    1
    29     7     1    1
    30    29    22   ar
    31    18    21    1
@<TRIPOS>MOLECULE
*****
 29 31 0 0 0
SMALL
GASTEIGER

@<TRIPOS>ATOM
      1 N         140.7411  142.8591  165.1372 N.3     1  UNL1       -0.2725
      2 C         139.2581  142.9400  164.9270 C.3     1  UNL1        0.0749
      3 C         138.6933  143.9121  163.9340 C.3     1  UNL1        0.0517
      4 C         139.6116  144.8033  163.1512 C.3     1  UNL1        0.1544
      5 F         138.2878  145.2472  162.6029 F       1  UNL1       -0.2382
      6 C         141.0945  144.7223  163.3615 C.3     1  UNL1        0.0517
      7 C         141.6593  143.7503  164.3545 C.3     1  UNL1        0.0749
      8 C         141.3059  141.8870  166.1302 C.3     1  UNL1        0.0722
      9 C         139.4736  142.9668  171.1683 C.3     1  UNL1        0.0296
     10 C         139.9698  142.6549  169.7875 C.3     1  UNL1        0.0930
     11 C         140.4486  144.0701  169.9229 C.3     1  UNL1        0.0296
     12 C         140.6321  142.8345  168.4537 C.3     1  UNL1        0.0287
     13 C         140.6435  141.7074  167.4641 C.3     1  UNL1        0.0208
     14 C         139.9924  140.4006  167.8082 C.3     1  UNL1        0.0335
     15 C         139.3300  140.2210  169.1419 C.3     1  UNL1        0.1420
     16 O         139.3187  141.3482  170.1316 O.3     1  UNL1       -0.3585
     17 C         140.0700  145.8486  162.1780 C.3     1  UNL1        0.1224
     18 N         139.6510  145.7697  160.7399 N.am    1  UNL1       -0.2984
     19 C         140.6140  145.2688  159.7046 C.2     1  UNL1        0.2460
     20 O         141.9959  144.8468  160.1075 O.2     1  UNL1       -0.2701
     21 H         138.7440  146.0467  160.4755 H       1  UNL1        0.1498
     22 C         140.1951  145.1899  158.2665 C.ar    1  UNL1        0.0550
     23 C         140.0107  143.8532  157.6113 C.ar    1  UNL1        0.0160
     24 C         139.5918  143.7741  156.1732 C.ar    1  UNL1        0.0587
     25 CL        139.4074  142.4374  155.5180 Cl      1  UNL1       -0.0822
     26 C         139.3572  145.0319  155.3902 C.ar    1  UNL1        0.0228
     27 C         139.5416  146.3686  156.0454 C.ar    1  UNL1        0.0587
     28 CL        139.3070  147.6263  155.2624 Cl      1  UNL1       -0.0822
     29 C         139.9605  146.4476  157.4835 C.ar    1  UNL1        0.0160
@<TRIPOS>BOND
     1     9    10    1
     2    10    11    1
     3    10    12    1
     4    12    13    1
     5    13     8    1
     6     8     1    1
     7     1     2    1
     8     2     3    1
     9     3     4    1
    10     4     5    1
    11     4    17    1
    12    17    18    1
    13    18    19   am
    14    19    20    2
    15    19    22    1
    16    22    23   ar
    17    23    24   ar
    18    24    25    1
    19    24    26   ar
    20    26    27   ar
    21    27    28    1
    22    27    29   ar
    23     4     6    1
    24     6     7    1
    25    13    14    1
    26    14    15    1
    27    15    16    1
    28    16    10    1
    29     7     1    1
    30    29    22   ar
    31    18    21    1
@<TRIPOS>MOLECULE
*****
 29 31 0 0 0
SMALL
GASTEIGER

@<TRIPOS>ATOM
      1 N         141.4954  141.2504  164.5572 N.3     1  UNL1       -0.2725
      2 C         142.6745  141.9758  165.1350 C.3     1  UNL1        0.0749
      3 C         143.0062  143.3613  164.6657 C.3     1  UNL1        0.0517
      4 C         142.1589  144.0215  163.6186 C.3     1  UNL1        0.1544
      5 F         143.1650  145.1071  163.8621 F       1  UNL1       -0.2382
      6 C         140.9799  143.2961  163.0409 C.3     1  UNL1        0.0517
      7 C         140.6482  141.9106  163.5102 C.3     1  UNL1        0.0749
      8 C         141.1637  139.8649  165.0265 C.3     1  UNL1        0.0722
      9 C         138.7182  140.2195  169.9049 C.3     1  UNL1        0.0296
     10 C         139.3764  140.1123  168.5613 C.3     1  UNL1        0.0930
     11 C         140.3627  140.9969  169.2647 C.3     1  UNL1        0.0296
     12 C         140.3771  140.3122  167.4620 C.3     1  UNL1        0.0287
     13 C         140.1629  139.6649  166.1259 C.3     1  UNL1        0.0208
     14 C         138.9480  138.8176  165.8892 C.3     1  UNL1        0.0335
     15 C         137.9473  138.6176  166.9885 C.3     1  UNL1        0.1420
     16 O         138.1615  139.2650  168.3246 O.3     1  UNL1       -0.3585
     17 C         141.6610  145.0587  162.6561 C.3     1  UNL1        0.1224
     18 N         141.9547  144.9249  161.1913 N.am    1  UNL1       -0.2984
     19 C         140.9234  145.3289  160.1797 C.2     1  UNL1        0.2460
     20 O         139.5985  145.8667  160.6330 O.2     1  UNL1       -0.2701
     21 H         142.8243  144.5719  160.8938 H       1  UNL1        0.1498
     22 C         141.2170  145.1952  158.7148 C.ar    1  UNL1        0.0550
     23 C         142.2428  144.2078  158.2426 C.ar    1  UNL1        0.0160
     24 C         142.5364  144.0740  156.7777 C.ar    1  UNL1        0.0587
     25 CL        143.5622  143.0867  156.3055 Cl      1  UNL1       -0.0822
     26 C         141.8043  144.9276  155.7850 C.ar    1  UNL1        0.0228
     27 C         140.7785  145.9149  156.2573 C.ar    1  UNL1        0.0587
     28 CL        140.0464  146.7685  155.2646 Cl      1  UNL1       -0.0822
     29 C         140.4849  146.0487  157.7221 C.ar    1  UNL1        0.0160
@<TRIPOS>BOND
     1     9    10    1
     2    10    11    1
     3    10    12    1
     4    12    13    1
     5    13     8    1
     6     8     1    1
     7     1     2    1
     8     2     3    1
     9     3     4    1
    10     4     5    1
    11     4    17    1
    12    17    18    1
    13    18    19   am
    14    19    20    2
    15    19    22    1
    16    22    23   ar
    17    23    24   ar
    18    24    25    1
    19    24    26   ar
    20    26    27   ar
    21    27    28    1
    22    27    29   ar
    23     4     6    1
    24     6     7    1
    25    13    14    1
    26    14    15    1
    27    15    16    1
    28    16    10    1
    29     7     1    1
    30    29    22   ar
    31    18    21    1
@<TRIPOS>MOLECULE
*****
 29 31 0 0 0
SMALL
GASTEIGER

@<TRIPOS>ATOM
      1 N         142.7275  141.8603  165.4035 N.3     1  UNL1       -0.2725
      2 C         143.9215  142.7681  165.4282 C.3     1  UNL1        0.0749
      3 C         143.9258  144.0241  164.6082 C.3     1  UNL1        0.0517
      4 C         142.7362  144.3723  163.7634 C.3     1  UNL1        0.1544
      5 F         143.6241  145.5421  163.4579 F       1  UNL1       -0.2382
      6 C         141.5423  143.4646  163.7387 C.3     1  UNL1        0.0517
      7 C         141.5379  142.2086  164.5588 C.3     1  UNL1        0.0749
      8 C         142.7231  140.6044  166.2235 C.3     1  UNL1        0.0722
      9 C         140.3404  142.3513  170.8252 C.3     1  UNL1        0.0296
     10 C         140.9987  141.8578  169.5709 C.3     1  UNL1        0.0930
     11 C         140.4804  143.1808  169.0900 C.3     1  UNL1        0.0296
     12 C         141.4769  141.8238  168.1497 C.3     1  UNL1        0.0287
     13 C         142.2449  140.6383  167.6449 C.3     1  UNL1        0.0208
     14 C         142.5345  139.4868  168.5614 C.3     1  UNL1        0.0335
     15 C         142.0563  139.5208  169.9826 C.3     1  UNL1        0.1420
     16 O         141.2883  140.7063  170.4874 O.3     1  UNL1       -0.3585
     17 C         141.8549  145.1269  162.8125 C.3     1  UNL1        0.1224
     18 N         142.1155  145.0623  161.3368 N.am    1  UNL1       -0.2984
     19 C         140.9687  145.0992  160.3704 C.2     1  UNL1        0.2460
     20 O         139.5616  145.2006  160.8800 O.2     1  UNL1       -0.2701
     21 H         143.0390  144.9957  161.0024 H       1  UNL1        0.1498
     22 C         141.2292  145.0346  158.8947 C.ar    1  UNL1        0.0550
     23 C         140.4787  145.9367  157.9604 C.ar    1  UNL1        0.0160
     24 C         140.7390  145.8722  156.4846 C.ar    1  UNL1        0.0587
     25 CL        139.9885  146.7743  155.5504 Cl      1  UNL1       -0.0822
     26 C         141.7500  144.9054  155.9430 C.ar    1  UNL1        0.0228
     27 C         142.5006  144.0032  156.8773 C.ar    1  UNL1        0.0587
     28 CL        143.5116  143.0365  156.3357 Cl      1  UNL1       -0.0822
     29 C         142.2402  144.0678  158.3531 C.ar    1  UNL1        0.0160
@<TRIPOS>BOND
     1     9    10    1
     2    10    11    1
     3    10    12    1
     4    12    13    1
     5    13     8    1
     6     8     1    1
     7     1     2    1
     8     2     3    1
     9     3     4    1
    10     4     5    1
    11     4    17    1
    12    17    18    1
    13    18    19   am
    14    19    20    2
    15    19    22    1
    16    22    23   ar
    17    23    24   ar
    18    24    25    1
    19    24    26   ar
    20    26    27   ar
    21    27    28    1
    22    27    29   ar
    23     4     6    1
    24     6     7    1
    25    13    14    1
    26    14    15    1
    27    15    16    1
    28    16    10    1
    29     7     1    1
    30    29    22   ar
    31    18    21    1
@<TRIPOS>MOLECULE
*****
 29 31 0 0 0
SMALL
GASTEIGER

@<TRIPOS>ATOM
      1 N         143.5356  141.8536  160.8565 N.3     1  UNL1       -0.2725
      2 C         144.7160  142.5862  161.4225 C.3     1  UNL1        0.0749
      3 C         145.4049  142.0647  162.6486 C.3     1  UNL1        0.0517
      4 C         144.9136  140.8105  163.3087 C.3     1  UNL1        0.1544
      5 F         146.0617  141.1483  164.2131 F       1  UNL1       -0.2382
      6 C         143.7333  140.0779  162.7428 C.3     1  UNL1        0.0517
      7 C         143.0444  140.5995  161.5167 C.3     1  UNL1        0.0749
      8 C         142.8467  142.3751  159.6304 C.3     1  UNL1        0.0722
      9 C         139.7366  146.3073  161.8146 C.3     1  UNL1        0.0296
     10 C         140.5834  145.2324  161.2001 C.3     1  UNL1        0.0930
     11 C         140.9869  145.0918  162.6380 C.3     1  UNL1        0.0296
     12 C         141.5703  144.1087  161.0850 C.3     1  UNL1        0.0287
     13 C         141.8597  143.4988  159.7455 C.3     1  UNL1        0.0208
     14 C         141.1622  144.0127  158.5210 C.3     1  UNL1        0.0335
     15 C         140.1753  145.1364  158.6361 C.3     1  UNL1        0.1420
     16 O         139.8859  145.7462  159.9757 O.3     1  UNL1       -0.3585
     17 C         144.8210  139.6737  164.2830 C.3     1  UNL1        0.1224
     18 N         143.5458  139.4324  165.0350 N.am    1  UNL1       -0.2984
     19 C         142.9899  140.4996  165.9306 C.2     1  UNL1        0.2460
     20 O         143.7093  141.8079  166.0742 O.2     1  UNL1       -0.2701
     21 H         143.0736  138.5737  164.9407 H       1  UNL1        0.1498
     22 C         141.7147  140.2584  166.6826 C.ar    1  UNL1        0.0550
     23 C         141.6960  140.3586  168.1792 C.ar    1  UNL1        0.0160
     24 C         140.4208  140.1175  168.9313 C.ar    1  UNL1        0.0587
     25 CL        140.4022  140.2177  170.4278 Cl      1  UNL1       -0.0822
     26 C         139.1641  139.7761  168.1868 C.ar    1  UNL1        0.0228
     27 C         139.1828  139.6759  166.6902 C.ar    1  UNL1        0.0587
     28 CL        137.9261  139.3345  165.9457 Cl      1  UNL1       -0.0822
     29 C         140.4580  139.9170  165.9381 C.ar    1  UNL1        0.0160
@<TRIPOS>BOND
     1     9    10    1
     2    10    11    1
     3    10    12    1
     4    12    13    1
     5    13     8    1
     6     8     1    1
     7     1     2    1
     8     2     3    1
     9     3     4    1
    10     4     5    1
    11     4    17    1
    12    17    18    1
    13    18    19   am
    14    19    20    2
    15    19    22    1
    16    22    23   ar
    17    23    24   ar
    18    24    25    1
    19    24    26   ar
    20    26    27   ar
    21    27    28    1
    22    27    29   ar
    23     4     6    1
    24     6     7    1
    25    13    14    1
    26    14    15    1
    27    15    16    1
    28    16    10    1
    29     7     1    1
    30    29    22   ar
    31    18    21    1
@<TRIPOS>MOLECULE
*****
 29 31 0 0 0
SMALL
GASTEIGER

@<TRIPOS>ATOM
      1 N         143.4539  141.7072  161.2385 N.3     1  UNL1       -0.2725
      2 C         143.0399  140.3327  160.8031 C.3     1  UNL1        0.0749
      3 C         143.0278  139.2047  161.7918 C.3     1  UNL1        0.0517
      4 C         143.4298  139.4513  163.2158 C.3     1  UNL1        0.1544
      5 F         143.1178  137.9856  163.2832 F       1  UNL1       -0.2382
      6 C         143.8438  140.8257  163.6511 C.3     1  UNL1        0.0517
      7 C         143.8558  141.9537  162.6624 C.3     1  UNL1        0.0749
      8 C         143.4659  142.8352  160.2498 C.3     1  UNL1        0.0722
      9 C         139.5362  146.3294  161.7507 C.3     1  UNL1        0.0296
     10 C         140.6089  145.3721  161.3229 C.3     1  UNL1        0.0930
     11 C         140.8859  145.4324  162.7959 C.3     1  UNL1        0.0296
     12 C         141.7777  144.4358  161.4066 C.3     1  UNL1        0.0287
     13 C         142.2970  143.7716  160.1660 C.3     1  UNL1        0.0208
     14 C         141.6475  144.0438  158.8416 C.3     1  UNL1        0.0335
     15 C         140.4787  144.9801  158.7578 C.3     1  UNL1        0.1420
     16 O         139.9594  145.6443  159.9985 O.3     1  UNL1       -0.3585
     17 C         143.7234  139.1887  164.6633 C.3     1  UNL1        0.1224
     18 N         143.0182  139.9775  165.7265 N.am    1  UNL1       -0.2984
     19 C         142.9733  139.4643  167.1354 C.2     1  UNL1        0.2460
     20 O         143.6335  138.1625  167.4808 O.2     1  UNL1       -0.2701
     21 H         142.5849  140.8319  165.4998 H       1  UNL1        0.1498
     22 C         142.2682  140.2530  168.1987 C.ar    1  UNL1        0.0550
     23 C         142.9840  141.3649  168.9067 C.ar    1  UNL1        0.0160
     24 C         142.2790  142.1537  169.9700 C.ar    1  UNL1        0.0587
     25 CL        142.9948  143.2656  170.6780 Cl      1  UNL1       -0.0822
     26 C         140.8579  141.8304  170.3255 C.ar    1  UNL1        0.0228
     27 C         140.1421  140.7185  169.6175 C.ar    1  UNL1        0.0587
     28 CL        138.7211  140.3953  169.9729 Cl      1  UNL1       -0.0822
     29 C         140.8471  139.9298  168.5541 C.ar    1  UNL1        0.0160
@<TRIPOS>BOND
     1     9    10    1
     2    10    11    1
     3    10    12    1
     4    12    13    1
     5    13     8    1
     6     8     1    1
     7     1     2    1
     8     2     3    1
     9     3     4    1
    10     4     5    1
    11     4    17    1
    12    17    18    1
    13    18    19   am
    14    19    20    2
    15    19    22    1
    16    22    23   ar
    17    23    24   ar
    18    24    25    1
    19    24    26   ar
    20    26    27   ar
    21    27    28    1
    22    27    29   ar
    23     4     6    1
    24     6     7    1
    25    13    14    1
    26    14    15    1
    27    15    16    1
    28    16    10    1
    29     7     1    1
    30    29    22   ar
    31    18    21    1
@<TRIPOS>MOLECULE
*****
 29 31 0 0 0
SMALL
GASTEIGER

@<TRIPOS>ATOM
      1 N         140.8665  143.2806  165.2165 N.3     1  UNL1       -0.2725
      2 C         139.4944  143.8793  165.3119 C.3     1  UNL1        0.0749
      3 C         138.9808  144.7570  164.2094 C.3     1  UNL1        0.0517
      4 C         139.8393  145.0362  163.0114 C.3     1  UNL1        0.1544
      5 F         138.6181  145.8272  162.6467 F       1  UNL1       -0.2382
      6 C         141.2114  144.4376  162.9160 C.3     1  UNL1        0.0517
      7 C         141.7250  143.5598  164.0186 C.3     1  UNL1        0.0749
      8 C         141.3801  142.4028  166.3191 C.3     1  UNL1        0.0722
      9 C         137.7248  138.3895  166.9800 C.3     1  UNL1        0.0296
     10 C         138.7284  139.4922  166.8156 C.3     1  UNL1        0.0930
     11 C         138.4792  139.1500  165.3765 C.3     1  UNL1        0.0296
     12 C         139.6454  140.4760  166.1514 C.3     1  UNL1        0.0287
     13 C         140.4631  141.4190  166.9834 C.3     1  UNL1        0.0208
     14 C         140.3637  141.3782  168.4795 C.3     1  UNL1        0.0335
     15 C         139.4467  140.3944  169.1436 C.3     1  UNL1        0.1420
     16 O         138.6290  139.4514  168.3117 O.3     1  UNL1       -0.3585
     17 C         140.2737  145.5901  161.6867 C.3     1  UNL1        0.1224
     18 N         139.6881  145.0454  160.4177 N.am    1  UNL1       -0.2984
     19 C         140.5570  144.8629  159.2087 C.2     1  UNL1        0.2460
     20 O         142.0114  145.2250  159.2688 O.2     1  UNL1       -0.2701
     21 H         138.7336  144.8077  160.3783 H       1  UNL1        0.1498
     22 C         139.9716  144.3182  157.9397 C.ar    1  UNL1        0.0550
     23 C         140.4446  144.8347  156.6133 C.ar    1  UNL1        0.0160
     24 C         139.8592  144.2901  155.3442 C.ar    1  UNL1        0.0587
     25 CL        140.3322  144.8067  154.0177 Cl      1  UNL1       -0.0822
     26 C         138.8007  143.2287  155.4015 C.ar    1  UNL1        0.0228
     27 C         138.3277  142.7122  156.7279 C.ar    1  UNL1        0.0587
     28 CL        137.2692  141.6508  156.7853 Cl      1  UNL1       -0.0822
     29 C         138.9131  143.2568  157.9970 C.ar    1  UNL1        0.0160
@<TRIPOS>BOND
     1     9    10    1
     2    10    11    1
     3    10    12    1
     4    12    13    1
     5    13     8    1
     6     8     1    1
     7     1     2    1
     8     2     3    1
     9     3     4    1
    10     4     5    1
    11     4    17    1
    12    17    18    1
    13    18    19   am
    14    19    20    2
    15    19    22    1
    16    22    23   ar
    17    23    24   ar
    18    24    25    1
    19    24    26   ar
    20    26    27   ar
    21    27    28    1
    22    27    29   ar
    23     4     6    1
    24     6     7    1
    25    13    14    1
    26    14    15    1
    27    15    16    1
    28    16    10    1
    29     7     1    1
    30    29    22   ar
    31    18    21    1
@<TRIPOS>MOLECULE
*****
 29 31 0 0 0
SMALL
GASTEIGER

@<TRIPOS>ATOM
      1 N         140.8373  143.3054  165.4136 N.3     1  UNL1       -0.2725
      2 C         139.3782  143.6294  165.2870 C.3     1  UNL1        0.0749
      3 C         138.8981  144.5014  164.1649 C.3     1  UNL1        0.0517
      4 C         139.8773  145.0494  163.1694 C.3     1  UNL1        0.1544
      5 F         138.6047  145.6343  162.6323 F       1  UNL1       -0.2382
      6 C         141.3363  144.7255  163.2960 C.3     1  UNL1        0.0517
      7 C         141.8164  143.8534  164.4181 C.3     1  UNL1        0.0749
      8 C         141.3174  142.4334  166.5357 C.3     1  UNL1        0.0722
      9 C         137.6958  138.3619  166.9967 C.3     1  UNL1        0.0296
     10 C         138.6896  139.4802  166.8872 C.3     1  UNL1        0.0930
     11 C         138.4908  139.1651  165.4341 C.3     1  UNL1        0.0296
     12 C         139.6143  140.4890  166.2730 C.3     1  UNL1        0.0287
     13 C         140.3926  141.4245  167.1499 C.3     1  UNL1        0.0208
     14 C         140.2462  141.3513  168.6409 C.3     1  UNL1        0.0335
     15 C         139.3215  140.3425  169.2551 C.3     1  UNL1        0.1420
     16 O         138.5432  139.4070  168.3782 O.3     1  UNL1       -0.3585
     17 C         140.4144  145.8006  161.9873 C.3     1  UNL1        0.1224
     18 N         141.2522  145.0909  160.9654 N.am    1  UNL1       -0.2984
     19 C         140.6044  144.1749  159.9697 C.2     1  UNL1        0.2460
     20 O         139.1189  143.9687  159.9960 O.2     1  UNL1       -0.2701
     21 H         142.2272  145.2263  160.9481 H       1  UNL1        0.1498
     22 C         141.4421  143.4652  158.9477 C.ar    1  UNL1        0.0550
     23 C         140.7898  142.8146  157.7640 C.ar    1  UNL1        0.0160
     24 C         141.6274  142.1048  156.7420 C.ar    1  UNL1        0.0587
     25 CL        140.9751  141.4542  155.5583 Cl      1  UNL1       -0.0822
     26 C         143.1176  142.0457  156.9037 C.ar    1  UNL1        0.0228
     27 C         143.7699  142.6963  158.0874 C.ar    1  UNL1        0.0587
     28 CL        145.2600  142.6372  158.2490 Cl      1  UNL1       -0.0822
     29 C         142.9322  143.4061  159.1094 C.ar    1  UNL1        0.0160
@<TRIPOS>BOND
     1     9    10    1
     2    10    11    1
     3    10    12    1
     4    12    13    1
     5    13     8    1
     6     8     1    1
     7     1     2    1
     8     2     3    1
     9     3     4    1
    10     4     5    1
    11     4    17    1
    12    17    18    1
    13    18    19   am
    14    19    20    2
    15    19    22    1
    16    22    23   ar
    17    23    24   ar
    18    24    25    1
    19    24    26   ar
    20    26    27   ar
    21    27    28    1
    22    27    29   ar
    23     4     6    1
    24     6     7    1
    25    13    14    1
    26    14    15    1
    27    15    16    1
    28    16    10    1
    29     7     1    1
    30    29    22   ar
    31    18    21    1
