@<TRIPOS>MOLECULE
*****
 36 41 0 0 0
SMALL
GASTEIGER

@<TRIPOS>ATOM
      1 C         140.1161  144.0364  157.0321 C.2     1  UNL1        0.1012
      2 C         140.7676  144.9551  156.0414 C.2     1  UNL1        0.1182
      3 CL        140.3612  144.9114  154.5981 Cl      1  UNL1       -0.0771
      4 C         141.8253  145.9175  156.4939 C.2     1  UNL1        0.2481
      5 N         142.2317  145.9613  157.9372 N.2     1  UNL1       -0.0293
      6 C         141.5802  145.0425  158.9279 C.2     1  UNL1        0.4105
      7 N         141.7725  144.8595  160.4042 N.2     1  UNL1        0.0120
      8 C         140.8336  143.7839  160.8640 C.2     1  UNL1        0.3751
      9 N         140.0610  143.3022  159.6720 N.2     1  UNL1       -0.0450
     10 C         140.5224  144.0801  158.4753 C.3     1  UNL1        0.3609
     11 N         136.9428  141.1489  155.6744 N.3     1  UNL1       -0.2646
     12 C         138.3102  140.6467  156.0325 C.3     1  UNL1        0.0941
     13 C         139.3679  141.6092  156.4850 C.3     1  UNL1        0.1080
     14 N         139.0583  143.0739  156.5795 N.pl3   1  UNL1       -0.3034
     15 C         137.6910  143.5761  156.2214 C.3     1  UNL1        0.1080
     16 C         136.6333  142.6135  155.7689 C.3     1  UNL1        0.0941
     17 C         135.8852  140.1865  155.2219 C.3     1  UNL1        0.1222
     18 C         130.7460  141.3156  155.6642 C.3     1  UNL1        0.0754
     19 C         132.1279  140.8157  155.9653 C.ar    1  UNL1        0.1546
     20 C         133.3215  140.9267  155.0636 C.ar    1  UNL1        0.0550
     21 C         134.4900  140.2968  155.7619 C.ar    1  UNL1        0.1165
     22 N         134.0186  139.7964  157.0951 N.ar    1  UNL1       -0.0803
     23 O         132.5587  140.1172  157.2208 O.2     1  UNL1       -0.3580
     24 C         140.6920  143.2787  162.2693 C.ar    1  UNL1        0.0882
     25 C         140.5564  144.2490  163.4051 C.ar    1  UNL1        0.0089
     26 C         140.4149  143.7437  164.8103 C.ar    1  UNL1        0.0148
     27 C         140.4090  142.2681  165.0798 C.ar    1  UNL1        0.0479
     28 C         140.5446  141.2978  163.9440 C.ar    1  UNL1        0.0148
     29 C         140.6861  141.8031  162.5388 C.ar    1  UNL1        0.0089
     30 N         140.2675  141.7629  166.4851 N.pl3   1  UNL1       -0.3046
     31 C         139.6400  140.4248  166.7414 C.3     1  UNL1        0.1081
     32 C         139.4984  139.9196  168.1466 C.3     1  UNL1        0.0938
     33 N         139.9844  140.7526  169.2955 N.3     1  UNL1       -0.2686
     34 C         139.8429  140.2474  170.7008 C.3     1  UNL1        0.0897
     35 C         140.6119  142.0906  169.0392 C.3     1  UNL1        0.0938
     36 C         140.7534  142.5959  167.6339 C.3     1  UNL1        0.1081
@<TRIPOS>BOND
     1    18    19    1
     2    19    20   ar
     3    20    21   ar
     4    21    17    1
     5    17    11    1
     6    11    12    1
     7    12    13    1
     8    13    14    1
     9    14     1    1
    10     1     2    2
    11     2     3    1
    12     2     4    1
    13     4     5    2
    14     5     6    1
    15     6     7    2
    16     7     8    1
    17     8    24    1
    18    24    25   ar
    19    25    26   ar
    20    26    27   ar
    21    27    30    1
    22    30    31    1
    23    31    32    1
    24    32    33    1
    25    33    34    1
    26    33    35    1
    27    35    36    1
    28    27    28   ar
    29    28    29   ar
    30     8     9    2
    31     9    10    1
    32    14    15    1
    33    15    16    1
    34    21    22   ar
    35    22    23   ar
    36    23    19   ar
    37    16    11    1
    38    10     1    1
    39    10     6    1
    40    29    24   ar
    41    36    30    1
@<TRIPOS>MOLECULE
*****
 36 41 0 0 0
SMALL
GASTEIGER

@<TRIPOS>ATOM
      1 C         143.1076  140.3430  157.8169 C.2     1  UNL1        0.1012
      2 C         144.0285  141.4893  157.5205 C.2     1  UNL1        0.1182
      3 CL        143.8178  142.8137  158.1926 Cl      1  UNL1       -0.0771
      4 C         145.1600  141.3113  156.5521 C.2     1  UNL1        0.2481
      5 N         145.3708  139.9869  155.8801 N.2     1  UNL1       -0.0293
      6 C         144.4499  138.8405  156.1765 C.2     1  UNL1        0.4105
      7 N         144.4097  137.4289  155.6709 N.2     1  UNL1        0.0120
      8 C         143.2532  136.7345  156.3270 C.2     1  UNL1        0.3751
      9 N         142.5787  137.7169  157.2379 N.2     1  UNL1       -0.0450
     10 C         143.3183  139.0186  157.1449 C.3     1  UNL1        0.3609
     11 N         139.7130  140.8771  160.7223 N.3     1  UNL1       -0.2646
     12 C         141.0535  140.4151  161.2118 C.3     1  UNL1        0.0941
     13 C         142.1850  140.2371  160.2434 C.3     1  UNL1        0.1080
     14 N         141.9761  140.5210  158.7853 N.pl3   1  UNL1       -0.3034
     15 C         140.6356  140.9830  158.2958 C.3     1  UNL1        0.1080
     16 C         139.5040  141.1610  159.2643 C.3     1  UNL1        0.0941
     17 C         138.5815  141.0551  161.6907 C.3     1  UNL1        0.1222
     18 C         138.4936  144.8567  165.3543 C.3     1  UNL1        0.0754
     19 C         138.3369  144.1237  164.0550 C.ar    1  UNL1        0.1546
     20 C         138.7003  142.6905  163.8017 C.ar    1  UNL1        0.0550
     21 C         138.3773  142.3763  162.3710 C.ar    1  UNL1        0.1165
     22 N         137.8144  143.6153  161.7400 N.ar    1  UNL1       -0.0803
     23 O         137.7894  144.6952  162.7808 O.2     1  UNL1       -0.3580
     24 C         142.8432  135.3080  156.1101 C.ar    1  UNL1        0.0882
     25 C         143.4130  134.2239  156.9761 C.ar    1  UNL1        0.0089
     26 C         143.0029  132.7974  156.7592 C.ar    1  UNL1        0.0148
     27 C         142.0230  132.4550  155.6763 C.ar    1  UNL1        0.0479
     28 C         141.4532  133.5391  154.8103 C.ar    1  UNL1        0.0148
     29 C         141.8633  134.9656  155.0272 C.ar    1  UNL1        0.0089
     30 N         141.6130  131.0285  155.4595 N.pl3   1  UNL1       -0.3046
     31 C         142.4845  129.9137  155.9571 C.3     1  UNL1        0.1081
     32 C         142.0745  128.4872  155.7402 C.3     1  UNL1        0.0938
     33 N         140.7928  128.1756  155.0257 N.3     1  UNL1       -0.2686
     34 C         140.3828  126.7491  154.8089 C.3     1  UNL1        0.0897
     35 C         139.9214  129.2904  154.5282 C.3     1  UNL1        0.0938
     36 C         140.3314  130.7169  154.7450 C.3     1  UNL1        0.1081
@<TRIPOS>BOND
     1    18    19    1
     2    19    20   ar
     3    20    21   ar
     4    21    17    1
     5    17    11    1
     6    11    12    1
     7    12    13    1
     8    13    14    1
     9    14     1    1
    10     1     2    2
    11     2     3    1
    12     2     4    1
    13     4     5    2
    14     5     6    1
    15     6     7    2
    16     7     8    1
    17     8    24    1
    18    24    25   ar
    19    25    26   ar
    20    26    27   ar
    21    27    30    1
    22    30    31    1
    23    31    32    1
    24    32    33    1
    25    33    34    1
    26    33    35    1
    27    35    36    1
    28    27    28   ar
    29    28    29   ar
    30     8     9    2
    31     9    10    1
    32    14    15    1
    33    15    16    1
    34    21    22   ar
    35    22    23   ar
    36    23    19   ar
    37    16    11    1
    38    10     1    1
    39    10     6    1
    40    29    24   ar
    41    36    30    1
@<TRIPOS>MOLECULE
*****
 36 41 0 0 0
SMALL
GASTEIGER

@<TRIPOS>ATOM
      1 C         143.4339  140.4222  160.1161 C.2     1  UNL1        0.1012
      2 C         143.7720  141.8696  159.9143 C.2     1  UNL1        0.1182
      3 CL        143.9438  142.7720  161.1002 Cl      1  UNL1       -0.0771
      4 C         143.9381  142.4146  158.5268 C.2     1  UNL1        0.2481
      5 N         143.7662  141.5122  157.3409 N.2     1  UNL1       -0.0293
      6 C         143.4282  140.0648  157.5427 C.2     1  UNL1        0.4105
      7 N         143.1996  138.9430  156.5736 N.2     1  UNL1        0.0120
      8 C         142.8921  137.7046  157.3623 C.2     1  UNL1        0.3751
      9 N         142.9307  138.0611  158.8188 N.2     1  UNL1       -0.0450
     10 C         143.2621  139.5198  158.9303 C.3     1  UNL1        0.3609
     11 N         142.9354  138.7872  164.2789 N.3     1  UNL1       -0.2646
     12 C         141.7373  138.9625  163.3934 C.3     1  UNL1        0.0941
     13 C         141.9035  139.5074  162.0059 C.3     1  UNL1        0.1080
     14 N         143.2678  139.8772  161.5037 N.pl3   1  UNL1       -0.3034
     15 C         144.4658  139.7020  162.3891 C.3     1  UNL1        0.1080
     16 C         144.2996  139.1570  163.7767 C.3     1  UNL1        0.0941
     17 C         142.7692  138.2423  165.6664 C.3     1  UNL1        0.1222
     18 C         142.3877  142.5823  168.6498 C.3     1  UNL1        0.0754
     19 C         142.6189  141.1651  168.2160 C.ar    1  UNL1        0.1546
     20 C         142.4629  140.6330  166.8222 C.ar    1  UNL1        0.0550
     21 C         142.7942  139.1702  166.8447 C.ar    1  UNL1        0.1165
     22 N         143.1550  138.7982  168.2524 N.ar    1  UNL1       -0.0803
     23 O         143.0466  140.0311  169.0999 O.2     1  UNL1       -0.3580
     24 C         142.5977  136.3479  156.7942 C.ar    1  UNL1        0.0882
     25 C         141.5776  136.1961  155.7050 C.ar    1  UNL1        0.0089
     26 C         141.2833  134.8394  155.1369 C.ar    1  UNL1        0.0148
     27 C         142.0090  133.6345  155.6580 C.ar    1  UNL1        0.0479
     28 C         143.0291  133.7863  156.7472 C.ar    1  UNL1        0.0148
     29 C         143.3234  135.1430  157.3152 C.ar    1  UNL1        0.0089
     30 N         141.7146  132.2778  155.0899 N.pl3   1  UNL1       -0.3046
     31 C         140.9290  132.1515  153.8183 C.3     1  UNL1        0.1081
     32 C         140.6346  130.7948  153.2502 C.3     1  UNL1        0.0938
     33 N         141.1258  129.5644  153.9538 N.3     1  UNL1       -0.2686
     34 C         140.8314  128.2077  153.3857 C.3     1  UNL1        0.0897
     35 C         141.9114  129.6908  155.2253 C.3     1  UNL1        0.0938
     36 C         142.2058  131.0475  155.7934 C.3     1  UNL1        0.1081
@<TRIPOS>BOND
     1    18    19    1
     2    19    20   ar
     3    20    21   ar
     4    21    17    1
     5    17    11    1
     6    11    12    1
     7    12    13    1
     8    13    14    1
     9    14     1    1
    10     1     2    2
    11     2     3    1
    12     2     4    1
    13     4     5    2
    14     5     6    1
    15     6     7    2
    16     7     8    1
    17     8    24    1
    18    24    25   ar
    19    25    26   ar
    20    26    27   ar
    21    27    30    1
    22    30    31    1
    23    31    32    1
    24    32    33    1
    25    33    34    1
    26    33    35    1
    27    35    36    1
    28    27    28   ar
    29    28    29   ar
    30     8     9    2
    31     9    10    1
    32    14    15    1
    33    15    16    1
    34    21    22   ar
    35    22    23   ar
    36    23    19   ar
    37    16    11    1
    38    10     1    1
    39    10     6    1
    40    29    24   ar
    41    36    30    1
@<TRIPOS>MOLECULE
*****
 36 41 0 0 0
SMALL
GASTEIGER

@<TRIPOS>ATOM
      1 C         143.3594  140.3893  158.9305 C.2     1  UNL1        0.1012
      2 C         143.7716  141.7517  158.4573 C.2     1  UNL1        0.1182
      3 CL        143.8596  142.8891  159.4314 Cl      1  UNL1       -0.0771
      4 C         144.0957  141.9767  157.0102 C.2     1  UNL1        0.2481
      5 N         144.0078  140.8393  156.0362 N.2     1  UNL1       -0.0293
      6 C         143.5956  139.4769  156.5094 C.2     1  UNL1        0.4105
      7 N         143.4212  138.1738  155.7872 N.2     1  UNL1        0.0120
      8 C         142.9892  137.1435  156.7880 C.2     1  UNL1        0.3751
      9 N         142.8966  137.8097  158.1288 N.2     1  UNL1       -0.0450
     10 C         143.2714  139.2519  157.9566 C.3     1  UNL1        0.3609
     11 N         142.3869  139.7142  163.2720 N.3     1  UNL1       -0.2646
     12 C         141.3189  140.1817  162.3280 C.3     1  UNL1        0.0941
     13 C         141.6431  140.4067  160.8810 C.3     1  UNL1        0.1080
     14 N         143.0353  140.1642  160.3777 N.pl3   1  UNL1       -0.3034
     15 C         144.1032  139.6968  161.3216 C.3     1  UNL1        0.1080
     16 C         143.7790  139.4718  162.7688 C.3     1  UNL1        0.0941
     17 C         142.0627  139.4892  164.7191 C.3     1  UNL1        0.1222
     18 C         137.4809  138.5026  167.1513 C.3     1  UNL1        0.0754
     19 C         138.6551  138.3981  166.2238 C.ar    1  UNL1        0.1546
     20 C         139.8292  139.3307  166.1792 C.ar    1  UNL1        0.0550
     21 C         140.7611  138.8516  165.1059 C.ar    1  UNL1        0.1165
     22 N         140.1630  137.6230  164.4871 N.ar    1  UNL1       -0.0803
     23 O         138.8615  137.3427  165.1781 O.2     1  UNL1       -0.3580
     24 C         142.7004  135.7002  156.4989 C.ar    1  UNL1        0.0882
     25 C         143.4490  134.6247  157.2289 C.ar    1  UNL1        0.0089
     26 C         143.1602  133.1814  156.9397 C.ar    1  UNL1        0.0148
     27 C         142.1228  132.8136  155.9207 C.ar    1  UNL1        0.0479
     28 C         141.3742  133.8891  155.1907 C.ar    1  UNL1        0.0148
     29 C         141.6630  135.3324  155.4799 C.ar    1  UNL1        0.0089
     30 N         141.8340  131.3703  155.6316 N.pl3   1  UNL1       -0.3046
     31 C         140.6484  130.9962  154.7923 C.3     1  UNL1        0.1081
     32 C         140.3597  129.5529  154.5032 C.3     1  UNL1        0.0938
     33 N         141.2566  128.4838  155.0534 N.3     1  UNL1       -0.2686
     34 C         140.9678  127.0405  154.7643 C.3     1  UNL1        0.0897
     35 C         142.4422  128.8580  155.8926 C.3     1  UNL1        0.0938
     36 C         142.7309  130.3013  156.1817 C.3     1  UNL1        0.1081
@<TRIPOS>BOND
     1    18    19    1
     2    19    20   ar
     3    20    21   ar
     4    21    17    1
     5    17    11    1
     6    11    12    1
     7    12    13    1
     8    13    14    1
     9    14     1    1
    10     1     2    2
    11     2     3    1
    12     2     4    1
    13     4     5    2
    14     5     6    1
    15     6     7    2
    16     7     8    1
    17     8    24    1
    18    24    25   ar
    19    25    26   ar
    20    26    27   ar
    21    27    30    1
    22    30    31    1
    23    31    32    1
    24    32    33    1
    25    33    34    1
    26    33    35    1
    27    35    36    1
    28    27    28   ar
    29    28    29   ar
    30     8     9    2
    31     9    10    1
    32    14    15    1
    33    15    16    1
    34    21    22   ar
    35    22    23   ar
    36    23    19   ar
    37    16    11    1
    38    10     1    1
    39    10     6    1
    40    29    24   ar
    41    36    30    1
@<TRIPOS>MOLECULE
*****
 36 41 0 0 0
SMALL
GASTEIGER

@<TRIPOS>ATOM
      1 C         142.3013  140.1236  160.5213 C.2     1  UNL1        0.1012
      2 C         142.9875  141.4483  160.6778 C.2     1  UNL1        0.1182
      3 CL        142.7362  142.2834  161.8983 Cl      1  UNL1       -0.0771
      4 C         143.9248  141.9377  159.6141 C.2     1  UNL1        0.2481
      5 N         144.1761  141.1025  158.3936 N.2     1  UNL1       -0.0293
      6 C         143.4899  139.7779  158.2371 C.2     1  UNL1        0.4105
      7 N         143.5408  138.7432  157.1522 N.2     1  UNL1        0.0120
      8 C         142.6348  137.6143  157.5456 C.2     1  UNL1        0.3751
      9 N         142.0240  137.9513  158.8736 N.2     1  UNL1       -0.0450
     10 C         142.5525  139.2885  159.3009 C.3     1  UNL1        0.3609
     11 N         139.4890  138.6554  163.7128 N.3     1  UNL1       -0.2646
     12 C         139.0852  139.7935  162.8229 C.3     1  UNL1        0.0941
     13 C         140.0225  140.2829  161.7591 C.3     1  UNL1        0.1080
     14 N         141.3639  139.6342  161.5851 N.pl3   1  UNL1       -0.3034
     15 C         141.7677  138.4962  162.4749 C.3     1  UNL1        0.1080
     16 C         140.8302  138.0068  163.5388 C.3     1  UNL1        0.0941
     17 C         138.5516  138.1661  164.7766 C.3     1  UNL1        0.1222
     18 C         140.1205  140.9417  168.9856 C.3     1  UNL1        0.0754
     19 C         139.3618  139.9961  168.1023 C.ar    1  UNL1        0.1546
     20 C         139.6381  139.7305  166.6521 C.ar    1  UNL1        0.0550
     21 C         138.6407  138.7203  166.1676 C.ar    1  UNL1        0.1165
     22 N         137.7479  138.3616  167.3184 N.ar    1  UNL1       -0.0803
     23 O         138.1936  139.1501  168.5141 O.2     1  UNL1       -0.3580
     24 C         142.3836  136.3673  156.7507 C.ar    1  UNL1        0.0882
     25 C         143.2068  135.1389  157.0024 C.ar    1  UNL1        0.0089
     26 C         142.9555  133.8919  156.2073 C.ar    1  UNL1        0.0148
     27 C         141.8813  133.8734  155.1606 C.ar    1  UNL1        0.0479
     28 C         141.0581  135.1018  154.9089 C.ar    1  UNL1        0.0148
     29 C         141.3094  136.3488  155.7040 C.ar    1  UNL1        0.0089
     30 N         141.6301  132.6264  154.3657 N.pl3   1  UNL1       -0.3046
     31 C         140.8148  131.5133  154.9541 C.3     1  UNL1        0.1081
     32 C         140.5636  130.2663  154.1591 C.3     1  UNL1        0.0938
     33 N         141.1279  130.1325  152.7757 N.3     1  UNL1       -0.2686
     34 C         140.8768  128.8856  151.9807 C.3     1  UNL1        0.0897
     35 C         141.9432  131.2456  152.1874 C.3     1  UNL1        0.0938
     36 C         142.1944  132.4926  152.9823 C.3     1  UNL1        0.1081
@<TRIPOS>BOND
     1    18    19    1
     2    19    20   ar
     3    20    21   ar
     4    21    17    1
     5    17    11    1
     6    11    12    1
     7    12    13    1
     8    13    14    1
     9    14     1    1
    10     1     2    2
    11     2     3    1
    12     2     4    1
    13     4     5    2
    14     5     6    1
    15     6     7    2
    16     7     8    1
    17     8    24    1
    18    24    25   ar
    19    25    26   ar
    20    26    27   ar
    21    27    30    1
    22    30    31    1
    23    31    32    1
    24    32    33    1
    25    33    34    1
    26    33    35    1
    27    35    36    1
    28    27    28   ar
    29    28    29   ar
    30     8     9    2
    31     9    10    1
    32    14    15    1
    33    15    16    1
    34    21    22   ar
    35    22    23   ar
    36    23    19   ar
    37    16    11    1
    38    10     1    1
    39    10     6    1
    40    29    24   ar
    41    36    30    1
@<TRIPOS>MOLECULE
*****
 36 41 0 0 0
SMALL
GASTEIGER

@<TRIPOS>ATOM
      1 C         140.1715  142.6559  161.7960 C.2     1  UNL1        0.1012
      2 C         139.9844  144.1440  161.8196 C.2     1  UNL1        0.1182
      3 CL        139.6944  144.8430  163.1147 Cl      1  UNL1       -0.0771
      4 C         140.0872  144.9330  160.5481 C.2     1  UNL1        0.2481
      5 N         140.3772  144.2340  159.2529 N.2     1  UNL1       -0.0293
      6 C         140.5643  142.7459  159.2294 C.2     1  UNL1        0.4105
      7 N         140.8580  141.7888  158.1124 N.2     1  UNL1        0.0120
      8 C         140.9367  140.4083  158.6936 C.2     1  UNL1        0.3751
      9 N         140.6916  140.5121  160.1698 N.2     1  UNL1       -0.0450
     10 C         140.4614  141.9569  160.5009 C.3     1  UNL1        0.3609
     11 N         139.8630  140.2888  165.6107 N.3     1  UNL1       -0.2646
     12 C         141.2072  140.7142  165.0986 C.3     1  UNL1        0.0941
     13 C         141.3101  141.5032  163.8271 C.3     1  UNL1        0.1080
     14 N         140.0686  141.8669  163.0676 N.pl3   1  UNL1       -0.3034
     15 C         138.7245  141.4414  163.5796 C.3     1  UNL1        0.1080
     16 C         138.6217  140.6524  164.8512 C.3     1  UNL1        0.0941
     17 C         139.7602  139.4998  166.8822 C.3     1  UNL1        0.1222
     18 C         139.9333  143.1222  170.7201 C.3     1  UNL1        0.0754
     19 C         139.6250  141.8711  169.9521 C.ar    1  UNL1        0.1546
     20 C         140.0827  141.5567  168.5586 C.ar    1  UNL1        0.0550
     21 C         139.5455  140.2061  168.1880 C.ar    1  UNL1        0.1165
     22 N         138.7558  139.6858  169.3524 N.ar    1  UNL1       -0.0803
     23 O         138.8050  140.7149  170.4427 O.2     1  UNL1       -0.3580
     24 C         141.2121  139.1455  157.9323 C.ar    1  UNL1        0.0882
     25 C         140.1181  138.4940  157.1394 C.ar    1  UNL1        0.0089
     26 C         140.3936  137.2312  156.3781 C.ar    1  UNL1        0.0148
     27 C         141.7631  136.6200  156.4097 C.ar    1  UNL1        0.0479
     28 C         142.8571  137.2715  157.2026 C.ar    1  UNL1        0.0148
     29 C         142.5815  138.5342  157.9639 C.ar    1  UNL1        0.0089
     30 N         142.0385  135.3572  155.6484 N.pl3   1  UNL1       -0.3046
     31 C         142.6674  134.1853  156.3420 C.3     1  UNL1        0.1081
     32 C         142.9428  132.9225  155.5807 C.3     1  UNL1        0.0938
     33 N         142.5893  132.8318  154.1257 N.3     1  UNL1       -0.2686
     34 C         142.8647  131.5690  153.3644 C.3     1  UNL1        0.0897
     35 C         141.9604  134.0037  153.4322 C.3     1  UNL1        0.0938
     36 C         141.6850  135.2664  154.1935 C.3     1  UNL1        0.1081
@<TRIPOS>BOND
     1    18    19    1
     2    19    20   ar
     3    20    21   ar
     4    21    17    1
     5    17    11    1
     6    11    12    1
     7    12    13    1
     8    13    14    1
     9    14     1    1
    10     1     2    2
    11     2     3    1
    12     2     4    1
    13     4     5    2
    14     5     6    1
    15     6     7    2
    16     7     8    1
    17     8    24    1
    18    24    25   ar
    19    25    26   ar
    20    26    27   ar
    21    27    30    1
    22    30    31    1
    23    31    32    1
    24    32    33    1
    25    33    34    1
    26    33    35    1
    27    35    36    1
    28    27    28   ar
    29    28    29   ar
    30     8     9    2
    31     9    10    1
    32    14    15    1
    33    15    16    1
    34    21    22   ar
    35    22    23   ar
    36    23    19   ar
    37    16    11    1
    38    10     1    1
    39    10     6    1
    40    29    24   ar
    41    36    30    1
@<TRIPOS>MOLECULE
*****
 36 41 0 0 0
SMALL
GASTEIGER

@<TRIPOS>ATOM
      1 C         140.3281  139.4169  162.8096 C.2     1  UNL1        0.1012
      2 C         139.0431  138.7092  163.1223 C.2     1  UNL1        0.1182
      3 CL        138.5120  138.7039  164.5252 Cl      1  UNL1       -0.0771
      4 C         138.2892  138.0070  162.0323 C.2     1  UNL1        0.2481
      5 N         138.8203  138.0123  160.6294 N.2     1  UNL1       -0.0293
      6 C         140.1053  138.7200  160.3167 C.2     1  UNL1        0.4105
      7 N         140.8696  138.8945  159.0379 N.2     1  UNL1        0.0120
      8 C         142.0958  139.7047  159.3376 C.2     1  UNL1        0.3751
      9 N         142.0895  140.0309  160.8017 N.2     1  UNL1       -0.0450
     10 C         140.8593  139.4223  161.4068 C.3     1  UNL1        0.3609
     11 N         142.5900  141.5237  166.0801 N.3     1  UNL1       -0.2646
     12 C         142.6446  140.0285  165.9735 C.3     1  UNL1        0.0941
     13 C         141.8907  139.3262  164.8834 C.3     1  UNL1        0.1080
     14 N         141.0821  140.1192  163.8998 N.pl3   1  UNL1       -0.3034
     15 C         141.0274  141.6144  164.0063 C.3     1  UNL1        0.1080
     16 C         141.7814  142.3166  165.0965 C.3     1  UNL1        0.0941
     17 C         143.3439  142.2260  167.1702 C.3     1  UNL1        0.1222
     18 C         139.6502  142.8940  170.8840 C.3     1  UNL1        0.0754
     19 C         140.9779  142.8139  170.1905 C.ar    1  UNL1        0.1546
     20 C         141.1995  142.4694  168.7475 C.ar    1  UNL1        0.0550
     21 C         142.6756  142.5069  168.4835 C.ar    1  UNL1        0.1165
     22 N         143.3663  142.8746  169.7632 N.ar    1  UNL1       -0.0803
     23 O         142.3170  143.0643  170.8182 O.2     1  UNL1       -0.3580
     24 C         143.1444  140.1164  158.3472 C.ar    1  UNL1        0.0882
     25 C         144.0081  141.3115  158.6224 C.ar    1  UNL1        0.0089
     26 C         145.0567  141.7232  157.6319 C.ar    1  UNL1        0.0148
     27 C         145.2416  140.9397  156.3662 C.ar    1  UNL1        0.0479
     28 C         144.3780  139.7446  156.0910 C.ar    1  UNL1        0.0148
     29 C         143.3294  139.3330  157.0815 C.ar    1  UNL1        0.0089
     30 N         146.2902  141.3514  155.3758 N.pl3   1  UNL1       -0.3046
     31 C         145.9754  141.3578  153.9092 C.3     1  UNL1        0.1081
     32 C         147.0240  141.7695  152.9188 C.3     1  UNL1        0.0938
     33 N         148.3874  142.1748  153.3950 N.3     1  UNL1       -0.2686
     34 C         149.4360  142.5866  152.4046 C.3     1  UNL1        0.0897
     35 C         148.7022  142.1685  154.8616 C.3     1  UNL1        0.0938
     36 C         147.6536  141.7567  155.8520 C.3     1  UNL1        0.1081
@<TRIPOS>BOND
     1    18    19    1
     2    19    20   ar
     3    20    21   ar
     4    21    17    1
     5    17    11    1
     6    11    12    1
     7    12    13    1
     8    13    14    1
     9    14     1    1
    10     1     2    2
    11     2     3    1
    12     2     4    1
    13     4     5    2
    14     5     6    1
    15     6     7    2
    16     7     8    1
    17     8    24    1
    18    24    25   ar
    19    25    26   ar
    20    26    27   ar
    21    27    30    1
    22    30    31    1
    23    31    32    1
    24    32    33    1
    25    33    34    1
    26    33    35    1
    27    35    36    1
    28    27    28   ar
    29    28    29   ar
    30     8     9    2
    31     9    10    1
    32    14    15    1
    33    15    16    1
    34    21    22   ar
    35    22    23   ar
    36    23    19   ar
    37    16    11    1
    38    10     1    1
    39    10     6    1
    40    29    24   ar
    41    36    30    1
@<TRIPOS>MOLECULE
*****
 36 41 0 0 0
SMALL
GASTEIGER

@<TRIPOS>ATOM
      1 C         140.9642  139.8551  161.7438 C.2     1  UNL1        0.1012
      2 C         139.6627  139.1233  161.8873 C.2     1  UNL1        0.1182
      3 CL        138.9869  139.0504  163.2245 Cl      1  UNL1       -0.0771
      4 C         139.0370  138.4647  160.6938 C.2     1  UNL1        0.2481
      5 N         139.7128  138.5377  159.3566 N.2     1  UNL1       -0.0293
      6 C         141.0143  139.2694  159.2131 C.2     1  UNL1        0.4105
      7 N         141.9067  139.5077  158.0312 N.2     1  UNL1        0.0120
      8 C         143.0839  140.3137  158.4943 C.2     1  UNL1        0.3751
      9 N         142.9191  140.5735  159.9625 N.2     1  UNL1       -0.0450
     10 C         141.6400  139.9281  160.4067 C.3     1  UNL1        0.3609
     11 N         142.8413  141.8312  165.3246 N.3     1  UNL1       -0.2646
     12 C         141.9634  142.6258  164.4035 C.3     1  UNL1        0.0941
     13 C         141.3378  141.9672  163.2100 C.3     1  UNL1        0.1080
     14 N         141.5899  140.5138  162.9374 N.pl3   1  UNL1       -0.3034
     15 C         142.4677  139.7192  163.8583 C.3     1  UNL1        0.1080
     16 C         143.0933  140.3780  165.0519 C.3     1  UNL1        0.0941
     17 C         143.4669  142.4899  166.5181 C.3     1  UNL1        0.1222
     18 C         139.7313  142.1162  170.2312 C.3     1  UNL1        0.0754
     19 C         141.0633  142.2636  169.5574 C.ar    1  UNL1        0.1546
     20 C         141.3079  142.2611  168.0774 C.ar    1  UNL1        0.0550
     21 C         142.7803  142.4354  167.8507 C.ar    1  UNL1        0.1165
     22 N         143.4458  142.5457  169.1905 N.ar    1  UNL1       -0.0803
     23 O         142.3846  142.4395  170.2452 O.2     1  UNL1       -0.3580
     24 C         144.2256  140.7783  157.6395 C.ar    1  UNL1        0.0882
     25 C         145.0142  141.9912  158.0358 C.ar    1  UNL1        0.0089
     26 C         146.1558  142.4557  157.1809 C.ar    1  UNL1        0.0148
     27 C         146.5088  141.7075  155.9297 C.ar    1  UNL1        0.0479
     28 C         145.7202  140.4947  155.5333 C.ar    1  UNL1        0.0148
     29 C         144.5786  140.0301  156.3883 C.ar    1  UNL1        0.0089
     30 N         147.6505  142.1722  155.0748 N.pl3   1  UNL1       -0.3046
     31 C         147.4215  143.2119  154.0181 C.3     1  UNL1        0.1081
     32 C         148.5632  143.6765  153.1632 C.3     1  UNL1        0.0938
     33 N         149.9338  143.1013  153.3651 N.3     1  UNL1       -0.2686
     34 C         151.0754  143.5660  152.5103 C.3     1  UNL1        0.0897
     35 C         150.1627  142.0617  154.4218 C.3     1  UNL1        0.0938
     36 C         149.0210  141.5971  155.2767 C.3     1  UNL1        0.1081
@<TRIPOS>BOND
     1    18    19    1
     2    19    20   ar
     3    20    21   ar
     4    21    17    1
     5    17    11    1
     6    11    12    1
     7    12    13    1
     8    13    14    1
     9    14     1    1
    10     1     2    2
    11     2     3    1
    12     2     4    1
    13     4     5    2
    14     5     6    1
    15     6     7    2
    16     7     8    1
    17     8    24    1
    18    24    25   ar
    19    25    26   ar
    20    26    27   ar
    21    27    30    1
    22    30    31    1
    23    31    32    1
    24    32    33    1
    25    33    34    1
    26    33    35    1
    27    35    36    1
    28    27    28   ar
    29    28    29   ar
    30     8     9    2
    31     9    10    1
    32    14    15    1
    33    15    16    1
    34    21    22   ar
    35    22    23   ar
    36    23    19   ar
    37    16    11    1
    38    10     1    1
    39    10     6    1
    40    29    24   ar
    41    36    30    1
@<TRIPOS>MOLECULE
*****
 36 41 0 0 0
SMALL
GASTEIGER

@<TRIPOS>ATOM
      1 C         144.0172  139.6858  155.9048 C.2     1  UNL1        0.1012
      2 C         144.5127  140.4038  154.6846 C.2     1  UNL1        0.1182
      3 CL        144.4091  139.7524  153.3373 Cl      1  UNL1       -0.0771
      4 C         145.1118  141.7730  154.8116 C.2     1  UNL1        0.2481
      5 N         145.2153  142.4244  156.1588 N.2     1  UNL1       -0.0293
      6 C         144.7198  141.7065  157.3790 C.2     1  UNL1        0.4105
      7 N         144.6897  142.0931  158.8280 N.2     1  UNL1        0.0120
      8 C         144.0720  140.9627  159.5966 C.2     1  UNL1        0.3751
      9 N         143.7204  139.8774  158.6226 N.2     1  UNL1       -0.0450
     10 C         144.1207  140.3372  157.2520 C.3     1  UNL1        0.3609
     11 N         142.2200  135.5778  155.5238 N.3     1  UNL1       -0.2646
     12 C         143.7079  135.7552  155.4526 C.3     1  UNL1        0.0941
     13 C         144.3069  137.1244  155.5796 C.3     1  UNL1        0.1080
     14 N         143.4181  138.3165  155.7778 N.pl3   1  UNL1       -0.3034
     15 C         141.9303  138.1392  155.8490 C.3     1  UNL1        0.1080
     16 C         141.3313  136.7698  155.7220 C.3     1  UNL1        0.0941
     17 C         141.6210  134.2086  155.3968 C.3     1  UNL1        0.1222
     18 C         144.7236  129.9708  154.8522 C.3     1  UNL1        0.0754
     19 C         143.8739  131.0484  155.4578 C.ar    1  UNL1        0.1546
     20 C         143.1826  132.1504  154.7108 C.ar    1  UNL1        0.0550
     21 C         142.4479  132.9963  155.7081 C.ar    1  UNL1        0.1165
     22 N         142.6851  132.4173  157.0713 N.ar    1  UNL1       -0.0803
     23 O         143.5664  131.2134  156.9167 O.2     1  UNL1       -0.3580
     24 C         143.8457  140.9242  161.0789 C.ar    1  UNL1        0.0882
     25 C         144.8572  141.5272  162.0080 C.ar    1  UNL1        0.0089
     26 C         144.6308  141.4887  163.4903 C.ar    1  UNL1        0.0148
     27 C         143.3929  140.8472  164.0436 C.ar    1  UNL1        0.0479
     28 C         142.3814  140.2442  163.1145 C.ar    1  UNL1        0.0148
     29 C         142.6078  140.2827  161.6322 C.ar    1  UNL1        0.0089
     30 N         143.1666  140.8087  165.5259 N.pl3   1  UNL1       -0.3046
     31 C         143.1716  142.0821  166.3187 C.3     1  UNL1        0.1081
     32 C         142.9453  142.0436  167.8010 C.3     1  UNL1        0.0938
     33 N         142.7140  140.7316  168.4905 N.3     1  UNL1       -0.2686
     34 C         142.4876  140.6931  169.9729 C.3     1  UNL1        0.0897
     35 C         142.7089  139.4584  167.6977 C.3     1  UNL1        0.0938
     36 C         142.9353  139.4968  166.2154 C.3     1  UNL1        0.1081
@<TRIPOS>BOND
     1    18    19    1
     2    19    20   ar
     3    20    21   ar
     4    21    17    1
     5    17    11    1
     6    11    12    1
     7    12    13    1
     8    13    14    1
     9    14     1    1
    10     1     2    2
    11     2     3    1
    12     2     4    1
    13     4     5    2
    14     5     6    1
    15     6     7    2
    16     7     8    1
    17     8    24    1
    18    24    25   ar
    19    25    26   ar
    20    26    27   ar
    21    27    30    1
    22    30    31    1
    23    31    32    1
    24    32    33    1
    25    33    34    1
    26    33    35    1
    27    35    36    1
    28    27    28   ar
    29    28    29   ar
    30     8     9    2
    31     9    10    1
    32    14    15    1
    33    15    16    1
    34    21    22   ar
    35    22    23   ar
    36    23    19   ar
    37    16    11    1
    38    10     1    1
    39    10     6    1
    40    29    24   ar
    41    36    30    1
