@<TRIPOS>MOLECULE
*****
 36 39 0 0 0
SMALL
GASTEIGER

@<TRIPOS>ATOM
      1 C         142.0457  142.5004  163.1581 C.ar    1  UNL1        0.2046
      2 N         141.4197  141.1605  163.4081 N.ar    1  UNL1       -0.1998
      3 C         141.6022  140.4829  164.7339 C.ar    1  UNL1        0.1389
      4 N         140.9761  139.1430  164.9838 N.pl3   1  UNL1       -0.3420
      5 C         142.4107  141.1454  165.8097 C.ar    1  UNL1        0.1169
      6 C         143.0368  142.4854  165.5597 C.ar    1  UNL1        0.2716
      7 O         143.8454  143.1479  166.6355 O.2     1  UNL1       -0.2663
      8 N         142.8543  143.1629  164.2339 N.ar    1  UNL1       -0.2662
      9 C         143.4804  144.5029  163.9839 C.3     1  UNL1        0.1363
     10 H         140.4454  138.7082  164.2777 H       1  UNL1        0.1437
     11 H         141.0959  138.6983  165.8540 H       1  UNL1        0.1437
     12 C         139.7041  146.8284  156.6162 C.3     1  UNL1        0.0000
     13 C         140.5897  145.8996  157.3926 C.3     1  UNL1        0.0014
     14 C         141.8453  145.2518  156.8887 C.3     1  UNL1        0.0155
     15 C         142.4069  144.4072  157.9939 C.3     1  UNL1        0.0508
     16 N         143.6574  143.5818  157.9244 N.3     1  UNL1       -0.3222
     17 C         141.4983  144.5330  159.1808 C.3     1  UNL1        0.0163
     18 C         142.6769  143.6333  159.4073 C.3     1  UNL1        0.0228
     19 C         142.8593  142.9558  160.7331 C.3     1  UNL1        0.0936
     20 N         141.8632  143.1780  161.8323 N.pl3   1  UNL1       -0.2794
     21 C         140.6846  144.0778  161.6058 C.3     1  UNL1        0.0936
     22 C         140.5022  144.7553  160.2801 C.3     1  UNL1        0.0228
     23 C         140.3752  145.4554  158.8091 C.3     1  UNL1        0.0014
     24 H         144.0783  143.6795  157.0004 H       1  UNL1        0.1188
     25 H         143.4278  142.6021  158.0916 H       1  UNL1        0.1188
     26 S         142.5932  140.4679  167.1354 S.3     1  UNL1       -0.0780
     27 C         141.5239  140.5683  168.1825 C.ar    1  UNL1        0.0514
     28 C         140.1562  140.0142  167.9133 C.ar    1  UNL1        0.0095
     29 C         139.0868  140.1147  168.9604 C.ar    1  UNL1        0.0212
     30 C         139.3852  140.7692  170.2766 C.ar    1  UNL1        0.0988
     31 N         140.7528  141.3233  170.5458 N.ar    1  UNL1       -0.2394
     32 C         141.8222  141.2229  169.4988 C.ar    1  UNL1        0.1585
     33 C         143.1898  141.7770  169.7680 C.3     1  UNL1        0.4353
     34 F         144.5575  142.3311  170.0372 F       1  UNL1       -0.1644
     35 F         142.7336  143.1285  169.3042 F       1  UNL1       -0.1644
     36 F         143.6461  140.4254  170.2318 F       1  UNL1       -0.1644
@<TRIPOS>BOND
     1    13    12    1
     2    13    14    1
     3    14    15    1
     4    15    16    1
     5    15    17    1
     6    17    18    1
     7    18    19    1
     8    19    20    1
     9    20     1    1
    10     1     2   ar
    11     2     3   ar
    12     3     4    1
    13     3     5   ar
    14     5    26    1
    15    26    27    1
    16    27    28   ar
    17    28    29   ar
    18    29    30   ar
    19    30    31   ar
    20    31    32   ar
    21    32    33    1
    22    33    34    1
    23    33    35    1
    24    33    36    1
    25     5     6   ar
    26     6     7    2
    27     6     8   ar
    28     8     9    1
    29    20    21    1
    30    21    22    1
    31    17    23    1
    32    23    13    1
    33    22    17    1
    34     8     1   ar
    35    32    27   ar
    36    16    24    1
    37    16    25    1
    38     4    10    1
    39     4    11    1
@<TRIPOS>MOLECULE
*****
 36 39 0 0 0
SMALL
GASTEIGER

@<TRIPOS>ATOM
      1 C         140.0497  143.7214  159.3900 C.ar    1  UNL1        0.2046
      2 N         139.8273  144.9196  160.2645 N.ar    1  UNL1       -0.1998
      3 C         140.6309  145.0919  161.5194 C.ar    1  UNL1        0.1389
      4 N         140.4084  146.2902  162.3938 N.pl3   1  UNL1       -0.3420
      5 C         141.6569  144.0660  161.8997 C.ar    1  UNL1        0.1169
      6 C         141.8793  142.8677  161.0252 C.ar    1  UNL1        0.2716
      7 O         142.9053  141.8417  161.4055 O.2     1  UNL1       -0.2663
      8 N         141.0758  142.6954  159.7704 N.ar    1  UNL1       -0.2662
      9 C         141.2982  141.4972  158.8958 C.3     1  UNL1        0.1363
     10 H         139.7350  146.9635  162.1442 H       1  UNL1        0.1437
     11 H         140.9358  146.4032  163.2174 H       1  UNL1        0.1437
     12 C         134.8296  141.6795  153.4241 C.3     1  UNL1        0.0000
     13 C         135.9783  142.4244  154.0368 C.3     1  UNL1        0.0014
     14 C         136.8268  143.4547  153.3520 C.3     1  UNL1        0.0155
     15 C         137.8532  143.9369  154.3339 C.3     1  UNL1        0.0508
     16 N         138.9084  144.9699  154.0705 N.3     1  UNL1       -0.3222
     17 C         137.6391  143.2046  155.6255 C.3     1  UNL1        0.0163
     18 C         138.7756  144.1830  155.6599 C.3     1  UNL1        0.0228
     19 C         139.5791  144.3552  156.9147 C.3     1  UNL1        0.0936
     20 N         139.2462  143.5491  158.1351 N.pl3   1  UNL1       -0.2794
     21 C         138.1097  142.5708  158.1007 C.3     1  UNL1        0.0936
     22 C         137.3061  142.3986  156.8459 C.3     1  UNL1        0.0228
     23 C         136.4804  142.2699  155.4418 C.3     1  UNL1        0.0014
     24 H         138.8257  145.3031  153.1100 H       1  UNL1        0.1188
     25 H         139.8307  144.5568  154.2088 H       1  UNL1        0.1188
     26 S         142.4604  144.2382  163.1545 S.3     1  UNL1       -0.0780
     27 C         141.9953  143.6106  164.4350 C.ar    1  UNL1        0.0514
     28 C         140.5735  143.7819  164.8811 C.ar    1  UNL1        0.0095
     29 C         140.1084  143.1542  166.1616 C.ar    1  UNL1        0.0212
     30 C         141.0651  142.3553  166.9961 C.ar    1  UNL1        0.0988
     31 N         142.4869  142.1839  166.5500 N.ar    1  UNL1       -0.2394
     32 C         142.9521  142.8115  165.2695 C.ar    1  UNL1        0.1585
     33 C         144.3739  142.6402  164.8234 C.3     1  UNL1        0.4353
     34 F         145.7958  142.4689  164.3773 F       1  UNL1       -0.1644
     35 F         144.0117  141.3403  164.1683 F       1  UNL1       -0.1644
     36 F         144.7361  143.9401  165.4785 F       1  UNL1       -0.1644
@<TRIPOS>BOND
     1    13    12    1
     2    13    14    1
     3    14    15    1
     4    15    16    1
     5    15    17    1
     6    17    18    1
     7    18    19    1
     8    19    20    1
     9    20     1    1
    10     1     2   ar
    11     2     3   ar
    12     3     4    1
    13     3     5   ar
    14     5    26    1
    15    26    27    1
    16    27    28   ar
    17    28    29   ar
    18    29    30   ar
    19    30    31   ar
    20    31    32   ar
    21    32    33    1
    22    33    34    1
    23    33    35    1
    24    33    36    1
    25     5     6   ar
    26     6     7    2
    27     6     8   ar
    28     8     9    1
    29    20    21    1
    30    21    22    1
    31    17    23    1
    32    23    13    1
    33    22    17    1
    34     8     1   ar
    35    32    27   ar
    36    16    24    1
    37    16    25    1
    38     4    10    1
    39     4    11    1
@<TRIPOS>MOLECULE
*****
 36 39 0 0 0
SMALL
GASTEIGER

@<TRIPOS>ATOM
      1 C         141.4297  139.6048  163.4882 C.ar    1  UNL1        0.2046
      2 N         142.7959  139.0415  163.2316 N.ar    1  UNL1       -0.1998
      3 C         143.1130  138.4181  161.9045 C.ar    1  UNL1        0.1389
      4 N         144.4793  137.8548  161.6479 N.pl3   1  UNL1       -0.3420
      5 C         142.0638  138.3581  160.8342 C.ar    1  UNL1        0.1169
      6 C         140.6975  138.9215  161.0910 C.ar    1  UNL1        0.2716
      7 O         139.6483  138.8615  160.0207 O.2     1  UNL1       -0.2663
      8 N         140.3804  139.5448  162.4179 N.ar    1  UNL1       -0.2662
      9 C         139.0141  140.1082  162.6747 C.3     1  UNL1        0.1363
     10 H         145.1679  137.8941  162.3503 H       1  UNL1        0.1437
     11 H         144.6874  137.4456  160.7769 H       1  UNL1        0.1437
     12 C         140.4867  144.3094  170.1206 C.3     1  UNL1        0.0000
     13 C         140.3364  143.0643  169.2979 C.3     1  UNL1        0.0014
     14 C         139.6443  141.8037  169.7247 C.3     1  UNL1        0.0155
     15 C         139.7320  140.8214  168.5944 C.3     1  UNL1        0.0508
     16 N         139.1717  139.4299  168.5902 N.3     1  UNL1       -0.3222
     17 C         140.4783  141.4748  167.4692 C.3     1  UNL1        0.0163
     18 C         140.0375  140.0715  167.1753 C.3     1  UNL1        0.0228
     19 C         140.3546  139.4482  165.8483 C.3     1  UNL1        0.0936
     20 N         141.1126  140.2282  164.8153 N.pl3   1  UNL1       -0.2794
     21 C         141.5534  141.6314  165.1092 C.3     1  UNL1        0.0936
     22 C         141.2363  142.2547  166.4362 C.3     1  UNL1        0.0228
     23 C         140.8519  142.8610  167.9040 C.3     1  UNL1        0.0014
     24 H         138.7143  139.2449  169.4829 H       1  UNL1        0.1188
     25 H         139.9276  138.7595  168.4500 H       1  UNL1        0.1188
     26 S         142.3809  137.7348  159.5073 S.3     1  UNL1       -0.0780
     27 C         142.8804  138.5870  158.3785 C.ar    1  UNL1        0.0514
     28 C         143.4294  139.9548  158.6576 C.ar    1  UNL1        0.0095
     29 C         143.9290  140.8071  157.5288 C.ar    1  UNL1        0.0212
     30 C         143.8796  140.2916  156.1210 C.ar    1  UNL1        0.0988
     31 N         143.3306  138.9238  155.8420 N.ar    1  UNL1       -0.2394
     32 C         142.8310  138.0716  156.9707 C.ar    1  UNL1        0.1585
     33 C         142.2820  136.7038  156.6917 C.3     1  UNL1        0.4353
     34 F         141.7330  135.3361  156.4126 F       1  UNL1       -0.1644
     35 F         140.8906  137.2642  156.6823 F       1  UNL1       -0.1644
     36 F         143.6734  136.1434  156.7010 F       1  UNL1       -0.1644
@<TRIPOS>BOND
     1    13    12    1
     2    13    14    1
     3    14    15    1
     4    15    16    1
     5    15    17    1
     6    17    18    1
     7    18    19    1
     8    19    20    1
     9    20     1    1
    10     1     2   ar
    11     2     3   ar
    12     3     4    1
    13     3     5   ar
    14     5    26    1
    15    26    27    1
    16    27    28   ar
    17    28    29   ar
    18    29    30   ar
    19    30    31   ar
    20    31    32   ar
    21    32    33    1
    22    33    34    1
    23    33    35    1
    24    33    36    1
    25     5     6   ar
    26     6     7    2
    27     6     8   ar
    28     8     9    1
    29    20    21    1
    30    21    22    1
    31    17    23    1
    32    23    13    1
    33    22    17    1
    34     8     1   ar
    35    32    27   ar
    36    16    24    1
    37    16    25    1
    38     4    10    1
    39     4    11    1
@<TRIPOS>MOLECULE
*****
 36 39 0 0 0
SMALL
GASTEIGER

@<TRIPOS>ATOM
      1 C         140.7451  143.0335  161.9538 C.ar    1  UNL1        0.2046
      2 N         141.5943  141.8391  162.2731 N.ar    1  UNL1       -0.1998
      3 C         141.6812  141.3360  163.6836 C.ar    1  UNL1        0.1389
      4 N         142.5305  140.1416  164.0029 N.pl3   1  UNL1       -0.3420
      5 C         140.9188  142.0275  164.7748 C.ar    1  UNL1        0.1169
      6 C         140.0695  143.2220  164.4554 C.ar    1  UNL1        0.2716
      7 O         139.3071  143.9135  165.5466 O.2     1  UNL1       -0.2663
      8 N         139.9827  143.7250  163.0450 N.ar    1  UNL1       -0.2662
      9 C         139.1334  144.9195  162.7256 C.3     1  UNL1        0.1363
     10 H         143.0308  139.6877  163.2867 H       1  UNL1        0.1437
     11 H         142.5875  139.8114  164.9286 H       1  UNL1        0.1437
     12 C         139.0194  144.7267  154.1329 C.3     1  UNL1        0.0000
     13 C         139.7711  144.8585  155.4241 C.3     1  UNL1        0.0014
     14 C         140.9306  145.7753  155.6797 C.3     1  UNL1        0.0155
     15 C         141.3715  145.5801  157.1002 C.3     1  UNL1        0.0508
     16 N         142.5011  146.2965  157.7791 N.3     1  UNL1       -0.3222
     17 C         140.4845  144.5428  157.7225 C.3     1  UNL1        0.0163
     18 C         141.5321  145.0851  158.6490 C.3     1  UNL1        0.0228
     19 C         141.6189  144.5820  160.0594 C.3     1  UNL1        0.0936
     20 N         140.6582  143.5366  160.5433 N.pl3   1  UNL1       -0.2794
     21 C         139.6107  142.9943  159.6168 C.3     1  UNL1        0.0936
     22 C         139.5239  143.4973  158.2064 C.3     1  UNL1        0.0228
     23 C         139.4954  144.0968  156.6866 C.3     1  UNL1        0.0014
     24 H         142.9338  146.9472  157.1236 H       1  UNL1        0.1188
     25 H         143.1949  145.6176  158.0923 H       1  UNL1        0.1188
     26 S         141.0057  141.5245  166.1852 S.3     1  UNL1       -0.0780
     27 C         139.9369  140.6220  166.7267 C.ar    1  UNL1        0.0514
     28 C         139.0079  139.9119  165.7872 C.ar    1  UNL1        0.0095
     29 C         137.9391  139.0094  166.3288 C.ar    1  UNL1        0.0212
     30 C         137.7994  138.8169  167.8098 C.ar    1  UNL1        0.0988
     31 N         138.7285  139.5270  168.7493 N.ar    1  UNL1       -0.2394
     32 C         139.7972  140.4295  168.2078 C.ar    1  UNL1        0.1585
     33 C         140.7263  141.1395  169.1473 C.3     1  UNL1        0.4353
     34 F         141.6553  141.8496  170.0868 F       1  UNL1       -0.1644
     35 F         141.6593  139.9656  169.1119 F       1  UNL1       -0.1644
     36 F         139.7932  142.3135  169.1827 F       1  UNL1       -0.1644
@<TRIPOS>BOND
     1    13    12    1
     2    13    14    1
     3    14    15    1
     4    15    16    1
     5    15    17    1
     6    17    18    1
     7    18    19    1
     8    19    20    1
     9    20     1    1
    10     1     2   ar
    11     2     3   ar
    12     3     4    1
    13     3     5   ar
    14     5    26    1
    15    26    27    1
    16    27    28   ar
    17    28    29   ar
    18    29    30   ar
    19    30    31   ar
    20    31    32   ar
    21    32    33    1
    22    33    34    1
    23    33    35    1
    24    33    36    1
    25     5     6   ar
    26     6     7    2
    27     6     8   ar
    28     8     9    1
    29    20    21    1
    30    21    22    1
    31    17    23    1
    32    23    13    1
    33    22    17    1
    34     8     1   ar
    35    32    27   ar
    36    16    24    1
    37    16    25    1
    38     4    10    1
    39     4    11    1
@<TRIPOS>MOLECULE
*****
 36 39 0 0 0
SMALL
GASTEIGER

@<TRIPOS>ATOM
      1 C         141.0635  143.2106  162.9628 C.ar    1  UNL1        0.2046
      2 N         142.2148  142.2957  163.2583 N.ar    1  UNL1       -0.1998
      3 C         142.5239  141.9127  164.6754 C.ar    1  UNL1        0.1389
      4 N         143.6752  140.9978  164.9709 N.pl3   1  UNL1       -0.3420
      5 C         141.6815  142.4446  165.7967 C.ar    1  UNL1        0.1169
      6 C         140.5301  143.3595  165.5011 C.ar    1  UNL1        0.2716
      7 O         139.6878  143.8914  166.6225 O.2     1  UNL1       -0.2663
      8 N         140.2212  143.7425  164.0841 N.ar    1  UNL1       -0.2662
      9 C         139.0698  144.6574  163.7885 C.3     1  UNL1        0.1363
     10 H         144.2281  140.6487  164.2349 H       1  UNL1        0.1437
     11 H         143.8780  140.7465  165.9009 H       1  UNL1        0.1437
     12 C         140.2923  146.6204  155.5608 C.3     1  UNL1        0.0000
     13 C         140.0660  145.5748  156.6121 C.3     1  UNL1        0.0014
     14 C         139.2557  144.3229  156.4504 C.3     1  UNL1        0.0155
     15 C         139.2992  143.5717  157.7482 C.3     1  UNL1        0.0508
     16 N         138.6241  142.2627  158.0323 N.3     1  UNL1       -0.3222
     17 C         140.1364  144.3595  158.7118 C.3     1  UNL1        0.0163
     18 C         139.5892  143.0838  159.2803 C.3     1  UNL1        0.0228
     19 C         139.8982  142.7009  160.6973 C.3     1  UNL1        0.0936
     20 N         140.7545  143.5936  161.5457 N.pl3   1  UNL1       -0.2794
     21 C         141.3017  144.8692  160.9772 C.3     1  UNL1        0.0936
     22 C         140.9927  145.2522  159.5603 C.3     1  UNL1        0.0228
     23 C         140.6103  145.5974  158.0096 C.3     1  UNL1        0.0014
     24 H         138.1221  141.9515  157.2007 H       1  UNL1        0.1188
     25 H         137.9660  142.3798  158.8028 H       1  UNL1        0.1188
     26 S         141.9905  142.0617  167.2137 S.3     1  UNL1       -0.0780
     27 C         140.9209  141.4646  168.0794 C.ar    1  UNL1        0.0514
     28 C         140.0164  140.4023  167.5288 C.ar    1  UNL1        0.0095
     29 C         138.9468  139.8052  168.3946 C.ar    1  UNL1        0.0212
     30 C         138.7818  140.2705  169.8110 C.ar    1  UNL1        0.0988
     31 N         139.6864  141.3329  170.3617 N.ar    1  UNL1       -0.2394
     32 C         140.7559  141.9299  169.4959 C.ar    1  UNL1        0.1585
     33 C         141.6605  142.9923  170.0466 C.3     1  UNL1        0.4353
     34 F         142.5650  144.0546  170.5972 F       1  UNL1       -0.1644
     35 F         142.6203  141.9359  170.5078 F       1  UNL1       -0.1644
     36 F         140.7006  144.0486  169.5854 F       1  UNL1       -0.1644
@<TRIPOS>BOND
     1    13    12    1
     2    13    14    1
     3    14    15    1
     4    15    16    1
     5    15    17    1
     6    17    18    1
     7    18    19    1
     8    19    20    1
     9    20     1    1
    10     1     2   ar
    11     2     3   ar
    12     3     4    1
    13     3     5   ar
    14     5    26    1
    15    26    27    1
    16    27    28   ar
    17    28    29   ar
    18    29    30   ar
    19    30    31   ar
    20    31    32   ar
    21    32    33    1
    22    33    34    1
    23    33    35    1
    24    33    36    1
    25     5     6   ar
    26     6     7    2
    27     6     8   ar
    28     8     9    1
    29    20    21    1
    30    21    22    1
    31    17    23    1
    32    23    13    1
    33    22    17    1
    34     8     1   ar
    35    32    27   ar
    36    16    24    1
    37    16    25    1
    38     4    10    1
    39     4    11    1
@<TRIPOS>MOLECULE
*****
 36 39 0 0 0
SMALL
GASTEIGER

@<TRIPOS>ATOM
      1 C         141.8912  139.8571  162.7484 C.ar    1  UNL1        0.2046
      2 N         142.4969  138.8942  163.7260 N.ar    1  UNL1       -0.1998
      3 C         142.7343  139.3165  165.1457 C.ar    1  UNL1        0.1389
      4 N         143.3400  138.3535  166.1233 N.pl3   1  UNL1       -0.3420
      5 C         142.3658  140.7017  165.5877 C.ar    1  UNL1        0.1169
      6 C         141.7600  141.6647  164.6100 C.ar    1  UNL1        0.2716
      7 O         141.3916  143.0499  165.0520 O.2     1  UNL1       -0.2663
      8 N         141.5228  141.2424  163.1904 N.ar    1  UNL1       -0.2662
      9 C         140.9170  142.2053  162.2127 C.3     1  UNL1        0.1363
     10 H         143.5818  137.4443  165.8332 H       1  UNL1        0.1437
     11 H         143.4957  138.6307  167.0551 H       1  UNL1        0.1437
     12 C         139.0780  137.2237  155.5261 C.3     1  UNL1        0.0000
     13 C         140.1044  137.7680  156.4748 C.3     1  UNL1        0.0014
     14 C         141.5241  138.1130  156.1348 C.3     1  UNL1        0.0155
     15 C         142.1885  138.6212  157.3801 C.3     1  UNL1        0.0508
     16 N         143.6120  139.0797  157.4955 N.3     1  UNL1       -0.3222
     17 C         141.1794  138.5903  158.4895 C.3     1  UNL1        0.0163
     18 C         142.5275  139.1002  158.9049 C.3     1  UNL1        0.0228
     19 C         142.7647  139.5224  160.3246 C.3     1  UNL1        0.0936
     20 N         141.6539  139.4348  161.3287 N.pl3   1  UNL1       -0.2794
     21 C         140.3058  138.9250  160.9133 C.3     1  UNL1        0.0936
     22 C         140.0685  138.5028  159.4936 C.3     1  UNL1        0.0228
     23 C         139.8913  138.0631  157.9299 C.3     1  UNL1        0.0014
     24 H         144.0712  138.9945  156.5887 H       1  UNL1        0.1188
     25 H         144.1007  138.5023  158.1797 H       1  UNL1        0.1188
     26 S         142.6031  141.1240  167.0073 S.3     1  UNL1       -0.0780
     27 C         141.5430  140.8980  168.0441 C.ar    1  UNL1        0.0514
     28 C         140.2511  140.2373  167.6642 C.ar    1  UNL1        0.0095
     29 C         139.1909  140.0113  168.7011 C.ar    1  UNL1        0.0212
     30 C         139.4227  140.4461  170.1179 C.ar    1  UNL1        0.0988
     31 N         140.7147  141.1068  170.4978 N.ar    1  UNL1       -0.2394
     32 C         141.7748  141.3328  169.4609 C.ar    1  UNL1        0.1585
     33 C         143.0667  141.9936  169.8408 C.3     1  UNL1        0.4353
     34 F         144.3586  142.6543  170.2207 F       1  UNL1       -0.1644
     35 F         142.4662  143.3364  169.5472 F       1  UNL1       -0.1644
     36 F         143.6672  140.6507  170.1345 F       1  UNL1       -0.1644
@<TRIPOS>BOND
     1    13    12    1
     2    13    14    1
     3    14    15    1
     4    15    16    1
     5    15    17    1
     6    17    18    1
     7    18    19    1
     8    19    20    1
     9    20     1    1
    10     1     2   ar
    11     2     3   ar
    12     3     4    1
    13     3     5   ar
    14     5    26    1
    15    26    27    1
    16    27    28   ar
    17    28    29   ar
    18    29    30   ar
    19    30    31   ar
    20    31    32   ar
    21    32    33    1
    22    33    34    1
    23    33    35    1
    24    33    36    1
    25     5     6   ar
    26     6     7    2
    27     6     8   ar
    28     8     9    1
    29    20    21    1
    30    21    22    1
    31    17    23    1
    32    23    13    1
    33    22    17    1
    34     8     1   ar
    35    32    27   ar
    36    16    24    1
    37    16    25    1
    38     4    10    1
    39     4    11    1
@<TRIPOS>MOLECULE
*****
 36 39 0 0 0
SMALL
GASTEIGER

@<TRIPOS>ATOM
      1 C         142.1850  142.0406  162.9509 C.ar    1  UNL1        0.2046
      2 N         140.7556  141.7083  163.2612 N.ar    1  UNL1       -0.1998
      3 C         140.2597  141.7761  164.6753 C.ar    1  UNL1        0.1389
      4 N         138.8302  141.4439  164.9855 N.pl3   1  UNL1       -0.3420
      5 C         141.1933  142.1762  165.7791 C.ar    1  UNL1        0.1169
      6 C         142.6228  142.5085  165.4688 C.ar    1  UNL1        0.2716
      7 O         143.5564  142.9085  166.5725 O.2     1  UNL1       -0.2663
      8 N         143.1186  142.4407  164.0547 N.ar    1  UNL1       -0.2662
      9 C         144.5481  142.7729  163.7444 C.3     1  UNL1        0.1363
     10 H         138.2175  141.1813  164.2611 H       1  UNL1        0.1437
     11 H         138.5048  141.4883  165.9136 H       1  UNL1        0.1437
     12 C         145.2708  140.1218  155.6156 C.3     1  UNL1        0.0000
     13 C         144.6352  141.0176  156.6370 C.3     1  UNL1        0.0014
     14 C         144.2361  142.4485  156.4285 C.3     1  UNL1        0.0155
     15 C         143.6412  142.9551  157.7090 C.3     1  UNL1        0.0508
     16 N         143.1085  144.3368  157.9476 N.3     1  UNL1       -0.3222
     17 C         143.6726  141.8373  158.7088 C.3     1  UNL1        0.0163
     18 C         143.0791  143.1103  159.2353 C.3     1  UNL1        0.0228
     19 C         142.5832  143.1781  160.6493 C.3     1  UNL1        0.0936
     20 N         142.6809  141.9728  161.5369 N.pl3   1  UNL1       -0.2794
     21 C         143.2744  140.6998  161.0104 C.3     1  UNL1        0.0936
     22 C         143.7702  140.6321  159.5964 C.3     1  UNL1        0.0228
     23 C         144.2869  140.6399  158.0463 C.3     1  UNL1        0.0014
     24 H         143.2110  144.8922  157.0982 H       1  UNL1        0.1188
     25 H         143.6302  144.7761  158.7061 H       1  UNL1        0.1188
     26 S         140.6975  142.2440  167.1931 S.3     1  UNL1       -0.0780
     27 C         141.3005  141.3580  168.2426 C.ar    1  UNL1        0.0514
     28 C         141.9439  140.0612  167.8500 C.ar    1  UNL1        0.0095
     29 C         142.5470  139.1752  168.8996 C.ar    1  UNL1        0.0212
     30 C         142.5066  139.5862  170.3416 C.ar    1  UNL1        0.0988
     31 N         141.8632  140.8830  170.7341 N.ar    1  UNL1       -0.2394
     32 C         141.2601  141.7690  169.6847 C.ar    1  UNL1        0.1585
     33 C         140.6167  143.0659  170.0772 C.3     1  UNL1        0.4353
     34 F         139.9733  144.3628  170.4698 F       1  UNL1       -0.1644
     35 F         141.9388  143.7620  169.9444 F       1  UNL1       -0.1644
     36 F         139.2947  142.3698  170.2100 F       1  UNL1       -0.1644
@<TRIPOS>BOND
     1    13    12    1
     2    13    14    1
     3    14    15    1
     4    15    16    1
     5    15    17    1
     6    17    18    1
     7    18    19    1
     8    19    20    1
     9    20     1    1
    10     1     2   ar
    11     2     3   ar
    12     3     4    1
    13     3     5   ar
    14     5    26    1
    15    26    27    1
    16    27    28   ar
    17    28    29   ar
    18    29    30   ar
    19    30    31   ar
    20    31    32   ar
    21    32    33    1
    22    33    34    1
    23    33    35    1
    24    33    36    1
    25     5     6   ar
    26     6     7    2
    27     6     8   ar
    28     8     9    1
    29    20    21    1
    30    21    22    1
    31    17    23    1
    32    23    13    1
    33    22    17    1
    34     8     1   ar
    35    32    27   ar
    36    16    24    1
    37    16    25    1
    38     4    10    1
    39     4    11    1
@<TRIPOS>MOLECULE
*****
 36 39 0 0 0
SMALL
GASTEIGER

@<TRIPOS>ATOM
      1 C         140.6637  139.8105  162.7284 C.ar    1  UNL1        0.2046
      2 N         139.6842  140.2764  161.6923 N.ar    1  UNL1       -0.1998
      3 C         139.8096  139.8023  160.2747 C.ar    1  UNL1        0.1389
      4 N         138.8302  140.2682  159.2386 N.pl3   1  UNL1       -0.3420
      5 C         140.9146  138.8624  159.8932 C.ar    1  UNL1        0.1169
      6 C         141.8942  138.3965  160.9294 C.ar    1  UNL1        0.2716
      7 O         142.9992  137.4566  160.5480 O.2     1  UNL1       -0.2663
      8 N         141.7687  138.8706  162.3469 N.ar    1  UNL1       -0.2662
      9 C         142.7482  138.4047  163.3831 C.3     1  UNL1        0.1363
     10 H         138.1049  140.8851  159.4890 H       1  UNL1        0.1437
     11 H         138.9125  139.9570  158.3082 H       1  UNL1        0.1437
     12 C         140.8985  143.6547  169.9518 C.3     1  UNL1        0.0000
     13 C         140.5105  142.5639  168.9983 C.3     1  UNL1        0.0014
     14 C         139.6777  141.3603  169.3270 C.3     1  UNL1        0.0155
     15 C         139.5397  140.5376  168.0803 C.3     1  UNL1        0.0508
     16 N         138.7865  139.2465  167.9549 N.3     1  UNL1       -0.3222
     17 C         140.2872  141.2326  166.9811 C.3     1  UNL1        0.0163
     18 C         139.6288  139.9533  166.5571 C.3     1  UNL1        0.0228
     19 C         139.7542  139.4793  165.1395 C.3     1  UNL1        0.0936
     20 N         140.5382  140.2846  164.1460 N.pl3   1  UNL1       -0.2794
     21 C         141.1967  141.5638  164.5701 C.3     1  UNL1        0.0936
     22 C         141.0712  142.0378  165.9877 C.3     1  UNL1        0.0228
     23 C         140.8872  142.4849  167.5485 C.3     1  UNL1        0.0014
     24 H         138.3743  139.0044  168.8560 H       1  UNL1        0.1188
     25 H         139.4257  138.5068  167.6638 H       1  UNL1        0.1188
     26 S         141.0401  138.3883  158.4757 S.3     1  UNL1       -0.0780
     27 C         142.2022  138.8310  157.6370 C.ar    1  UNL1        0.0514
     28 C         142.7363  140.2262  157.7721 C.ar    1  UNL1        0.0095
     29 C         143.8984  140.6689  156.9332 C.ar    1  UNL1        0.0212
     30 C         144.5264  139.7165  155.9594 C.ar    1  UNL1        0.0988
     31 N         143.9923  138.3213  155.8243 N.ar    1  UNL1       -0.2394
     32 C         142.8303  137.8786  156.6630 C.ar    1  UNL1        0.1585
     33 C         142.2962  136.4834  156.5279 C.3     1  UNL1        0.4353
     34 F         141.7621  135.0882  156.3928 F       1  UNL1       -0.1644
     35 F         141.3682  136.9437  155.4431 F       1  UNL1       -0.1644
     36 F         143.2242  136.0231  157.6128 F       1  UNL1       -0.1644
@<TRIPOS>BOND
     1    13    12    1
     2    13    14    1
     3    14    15    1
     4    15    16    1
     5    15    17    1
     6    17    18    1
     7    18    19    1
     8    19    20    1
     9    20     1    1
    10     1     2   ar
    11     2     3   ar
    12     3     4    1
    13     3     5   ar
    14     5    26    1
    15    26    27    1
    16    27    28   ar
    17    28    29   ar
    18    29    30   ar
    19    30    31   ar
    20    31    32   ar
    21    32    33    1
    22    33    34    1
    23    33    35    1
    24    33    36    1
    25     5     6   ar
    26     6     7    2
    27     6     8   ar
    28     8     9    1
    29    20    21    1
    30    21    22    1
    31    17    23    1
    32    23    13    1
    33    22    17    1
    34     8     1   ar
    35    32    27   ar
    36    16    24    1
    37    16    25    1
    38     4    10    1
    39     4    11    1
@<TRIPOS>MOLECULE
*****
 36 39 0 0 0
SMALL
GASTEIGER

@<TRIPOS>ATOM
      1 C         141.6560  140.3429  162.8613 C.ar    1  UNL1        0.2046
      2 N         141.2240  141.7375  163.2053 N.ar    1  UNL1       -0.1998
      3 C         141.3980  142.2532  164.6032 C.ar    1  UNL1        0.1389
      4 N         140.9660  143.6478  164.9472 N.pl3   1  UNL1       -0.3420
      5 C         142.0040  141.3743  165.6568 C.ar    1  UNL1        0.1169
      6 C         142.4360  139.9796  165.3127 C.ar    1  UNL1        0.2716
      7 O         143.0420  139.1007  166.3664 O.2     1  UNL1       -0.2663
      8 N         142.2620  139.4639  163.9150 N.ar    1  UNL1       -0.2662
      9 C         142.6940  138.0693  163.5708 C.3     1  UNL1        0.1363
     10 H         140.5683  144.2247  164.2556 H       1  UNL1        0.1437
     11 H         141.0802  143.9863  165.8646 H       1  UNL1        0.1437
     12 C         139.1851  137.1717  155.7304 C.3     1  UNL1        0.0000
     13 C         140.1583  137.8121  156.6752 C.3     1  UNL1        0.0014
     14 C         141.5745  138.1920  156.3587 C.3     1  UNL1        0.0155
     15 C         142.1776  138.7999  157.5904 C.3     1  UNL1        0.0508
     16 N         143.5782  139.3205  157.7214 N.3     1  UNL1       -0.3222
     17 C         141.1341  138.7957  158.6680 C.3     1  UNL1        0.0163
     18 C         142.4475  139.3825  159.0928 C.3     1  UNL1        0.0228
     19 C         142.6215  139.8982  160.4906 C.3     1  UNL1        0.0936
     20 N         141.4820  139.8271  161.4635 N.pl3   1  UNL1       -0.2794
     21 C         140.1686  139.2403  161.0386 C.3     1  UNL1        0.0936
     22 C         139.9946  138.7246  159.6409 C.3     1  UNL1        0.0228
     23 C         139.8861  138.1852  158.1023 C.3     1  UNL1        0.0014
     24 H         144.0702  139.1993  156.8361 H       1  UNL1        0.1188
     25 H         144.0654  138.8050  158.4544 H       1  UNL1        0.1188
     26 S         142.1780  141.8900  167.0546 S.3     1  UNL1       -0.0780
     27 C         141.3082  141.3689  168.1599 C.ar    1  UNL1        0.0514
     28 C         140.0219  140.6688  167.8354 C.ar    1  UNL1        0.0095
     29 C         139.1520  140.1477  168.9409 C.ar    1  UNL1        0.0212
     30 C         139.5685  140.3267  170.3707 C.ar    1  UNL1        0.0988
     31 N         140.8549  141.0267  170.6952 N.ar    1  UNL1       -0.2394
     32 C         141.7247  141.5478  169.5898 C.ar    1  UNL1        0.1585
     33 C         143.0110  142.2479  169.9143 C.3     1  UNL1        0.4353
     34 F         144.2973  142.9479  170.2388 F       1  UNL1       -0.1644
     35 F         143.7367  140.9359  169.8679 F       1  UNL1       -0.1644
     36 F         142.2853  143.5598  169.9608 F       1  UNL1       -0.1644
@<TRIPOS>BOND
     1    13    12    1
     2    13    14    1
     3    14    15    1
     4    15    16    1
     5    15    17    1
     6    17    18    1
     7    18    19    1
     8    19    20    1
     9    20     1    1
    10     1     2   ar
    11     2     3   ar
    12     3     4    1
    13     3     5   ar
    14     5    26    1
    15    26    27    1
    16    27    28   ar
    17    28    29   ar
    18    29    30   ar
    19    30    31   ar
    20    31    32   ar
    21    32    33    1
    22    33    34    1
    23    33    35    1
    24    33    36    1
    25     5     6   ar
    26     6     7    2
    27     6     8   ar
    28     8     9    1
    29    20    21    1
    30    21    22    1
    31    17    23    1
    32    23    13    1
    33    22    17    1
    34     8     1   ar
    35    32    27   ar
    36    16    24    1
    37    16    25    1
    38     4    10    1
    39     4    11    1
