@<TRIPOS>MOLECULE
*****
 17 17 0 0 0
SMALL
GASTEIGER

@<TRIPOS>ATOM
      1 C         137.5200  141.2432  161.9641 C.3     1  UNL1        0.1697
      2 O         136.6446  141.2384  163.1821 O.3     1  UNL1       -0.3793
      3 H         136.6224  142.1281  163.5679 H       1  UNL1        0.2106
      4 C         138.1942  142.5110  161.5300 C.3     1  UNL1        0.1020
      5 N         137.7402  143.8292  162.0832 N.3     1  UNL1       -0.2964
      6 H         137.8062  144.5061  161.3230 H       1  UNL1        0.1233
      7 C         137.9071  144.2236  164.6457 C.3     1  UNL1        0.0171
      8 C         138.4464  144.4314  163.2616 C.3     1  UNL1        0.0541
      9 C         139.6922  145.2413  163.0558 C.3     1  UNL1        0.0171
     10 C         137.7212  139.9804  161.1800 C.3     1  UNL1        0.2358
     11 O         137.6854  138.6520  161.8757 O.3     1  UNL1       -0.4728
     12 C         138.8661  138.1944  162.6799 C.ar    1  UNL1        0.1387
     13 C         138.7393  138.0167  164.1639 C.ar    1  UNL1        0.0369
     14 C         139.9199  137.5592  164.9681 C.ar    1  UNL1        0.0031
     15 C         141.2274  137.2794  164.2882 C.ar    1  UNL1        0.0002
     16 C         141.3542  137.4571  162.8042 C.ar    1  UNL1        0.0031
     17 C         140.1735  137.9146  162.0001 C.ar    1  UNL1        0.0369
@<TRIPOS>BOND
     1     7     8    1
     2     8     9    1
     3     8     5    1
     4     5     4    1
     5     4     1    1
     6     1     2    1
     7     1    10    1
     8    10    11    1
     9    11    12    1
    10    12    13   ar
    11    13    14   ar
    12    14    15   ar
    13    15    16   ar
    14    16    17   ar
    15    17    12   ar
    16     5     6    1
    17     2     3    1
@<TRIPOS>MOLECULE
*****
 17 17 0 0 0
SMALL
GASTEIGER

@<TRIPOS>ATOM
      1 C         137.6667  141.1284  162.3123 C.3     1  UNL1        0.1697
      2 O         136.5146  141.3094  163.2556 O.3     1  UNL1       -0.3793
      3 H         136.2372  142.2389  163.2526 H       1  UNL1        0.2106
      4 C         138.2016  142.3028  161.5475 C.3     1  UNL1        0.1020
      5 N         137.7590  143.6920  161.9002 N.3     1  UNL1       -0.2964
      6 H         137.8311  144.2490  161.0488 H       1  UNL1        0.1233
      7 C         138.0864  144.2574  164.4148 C.3     1  UNL1        0.0171
      8 C         138.4704  144.4547  162.9782 C.3     1  UNL1        0.0541
      9 C         139.5657  145.4149  162.6197 C.3     1  UNL1        0.0171
     10 C         138.2840  139.7730  162.1337 C.3     1  UNL1        0.2358
     11 O         138.2946  138.7977  163.2733 O.3     1  UNL1       -0.4728
     12 C         139.0085  139.1404  164.5472 C.ar    1  UNL1        0.1387
     13 C         138.2396  139.2567  165.8299 C.ar    1  UNL1        0.0369
     14 C         138.9535  139.5994  167.1038 C.ar    1  UNL1        0.0031
     15 C         140.4363  139.8259  167.0951 C.ar    1  UNL1        0.0002
     16 C         141.2051  139.7096  165.8124 C.ar    1  UNL1        0.0031
     17 C         140.4913  139.3669  164.5385 C.ar    1  UNL1        0.0369
@<TRIPOS>BOND
     1     7     8    1
     2     8     9    1
     3     8     5    1
     4     5     4    1
     5     4     1    1
     6     1     2    1
     7     1    10    1
     8    10    11    1
     9    11    12    1
    10    12    13   ar
    11    13    14   ar
    12    14    15   ar
    13    15    16   ar
    14    16    17   ar
    15    17    12   ar
    16     5     6    1
    17     2     3    1
@<TRIPOS>MOLECULE
*****
 17 17 0 0 0
SMALL
GASTEIGER

@<TRIPOS>ATOM
      1 C         138.2942  138.9385  162.8239 C.3     1  UNL1        0.1697
      2 O         137.3330  139.1265  161.6878 O.3     1  UNL1       -0.3793
      3 H         137.0153  140.0430  161.6814 H       1  UNL1        0.2106
      4 C         138.6177  140.0887  163.7308 C.3     1  UNL1        0.1020
      5 N         137.9075  140.2310  165.0443 N.3     1  UNL1       -0.2964
      6 H         137.8957  141.2265  165.2663 H       1  UNL1        0.1233
      7 C         137.8016  138.2341  166.7029 C.3     1  UNL1        0.0171
      8 C         138.4286  139.5225  166.2593 C.3     1  UNL1        0.0541
      9 C         139.5769  140.1024  167.0309 C.3     1  UNL1        0.0171
     10 C         138.9318  137.6003  163.0532 C.3     1  UNL1        0.2358
     11 O         140.3222  137.3369  162.5558 O.3     1  UNL1       -0.4728
     12 C         141.5029  137.8682  163.3132 C.ar    1  UNL1        0.1387
     13 C         142.6501  138.4902  162.5737 C.ar    1  UNL1        0.0369
     14 C         143.8308  139.0216  163.3310 C.ar    1  UNL1        0.0031
     15 C         143.8643  138.9309  164.8279 C.ar    1  UNL1        0.0002
     16 C         142.7171  138.3089  165.5674 C.ar    1  UNL1        0.0031
     17 C         141.5364  137.7775  164.8100 C.ar    1  UNL1        0.0369
@<TRIPOS>BOND
     1     7     8    1
     2     8     9    1
     3     8     5    1
     4     5     4    1
     5     4     1    1
     6     1     2    1
     7     1    10    1
     8    10    11    1
     9    11    12    1
    10    12    13   ar
    11    13    14   ar
    12    14    15   ar
    13    15    16   ar
    14    16    17   ar
    15    17    12   ar
    16     5     6    1
    17     2     3    1
@<TRIPOS>MOLECULE
*****
 17 17 0 0 0
SMALL
GASTEIGER

@<TRIPOS>ATOM
      1 C         138.0860  141.2669  163.5504 C.3     1  UNL1        0.1697
      2 O         136.6477  141.2852  163.1252 O.3     1  UNL1       -0.3793
      3 H         136.5581  141.8032  162.3100 H       1  UNL1        0.2106
      4 C         139.1184  141.9880  162.7353 C.3     1  UNL1        0.1020
      5 N         139.9952  143.0207  163.3794 N.3     1  UNL1       -0.2964
      6 H         140.2896  142.6381  164.2779 H       1  UNL1        0.1233
      7 C         139.5686  145.4616  162.5985 C.3     1  UNL1        0.0171
      8 C         139.4606  144.3961  163.6486 C.3     1  UNL1        0.0541
      9 C         138.8180  144.7059  164.9682 C.3     1  UNL1        0.0171
     10 C         138.4921  140.5274  164.7907 C.3     1  UNL1        0.2358
     11 O         139.8117  140.8209  165.4407 O.3     1  UNL1       -0.4728
     12 C         139.8762  141.1064  166.9118 C.ar    1  UNL1        0.1387
     13 C         140.4593  142.3992  167.4001 C.ar    1  UNL1        0.0369
     14 C         140.5238  142.6847  168.8712 C.ar    1  UNL1        0.0031
     15 C         140.0051  141.6774  169.8542 C.ar    1  UNL1        0.0002
     16 C         139.4220  140.3845  169.3659 C.ar    1  UNL1        0.0031
     17 C         139.3575  140.0990  167.8947 C.ar    1  UNL1        0.0369
@<TRIPOS>BOND
     1     7     8    1
     2     8     9    1
     3     8     5    1
     4     5     4    1
     5     4     1    1
     6     1     2    1
     7     1    10    1
     8    10    11    1
     9    11    12    1
    10    12    13   ar
    11    13    14   ar
    12    14    15   ar
    13    15    16   ar
    14    16    17   ar
    15    17    12   ar
    16     5     6    1
    17     2     3    1
@<TRIPOS>MOLECULE
*****
 17 17 0 0 0
SMALL
GASTEIGER

@<TRIPOS>ATOM
      1 C         137.7465  142.9643  162.9031 C.3     1  UNL1        0.1697
      2 O         137.5711  143.4249  161.4864 O.3     1  UNL1       -0.3793
      3 H         137.3068  142.6737  160.9326 H       1  UNL1        0.2106
      4 C         137.5125  141.5258  163.2585 C.3     1  UNL1        0.1020
      5 N         137.6137  141.0803  164.6872 N.3     1  UNL1       -0.2964
      6 H         137.9266  141.8878  165.2260 H       1  UNL1        0.1233
      7 C         139.7855  139.7105  164.2910 C.3     1  UNL1        0.0171
      8 C         138.5149  139.9389  165.0548 C.3     1  UNL1        0.0541
      9 C         138.1456  139.0260  166.1863 C.3     1  UNL1        0.0171
     10 C         138.1560  143.9420  163.9644 C.3     1  UNL1        0.2358
     11 O         139.2825  144.8987  163.7085 O.3     1  UNL1       -0.4728
     12 C         140.6913  144.5045  164.0399 C.ar    1  UNL1        0.1387
     13 C         140.9558  143.2479  164.8151 C.ar    1  UNL1        0.0369
     14 C         142.3646  142.8536  165.1465 C.ar    1  UNL1        0.0031
     15 C         143.5089  143.7160  164.7028 C.ar    1  UNL1        0.0002
     16 C         143.2443  144.9726  163.9276 C.ar    1  UNL1        0.0031
     17 C         141.8355  145.3668  163.5962 C.ar    1  UNL1        0.0369
@<TRIPOS>BOND
     1     7     8    1
     2     8     9    1
     3     8     5    1
     4     5     4    1
     5     4     1    1
     6     1     2    1
     7     1    10    1
     8    10    11    1
     9    11    12    1
    10    12    13   ar
    11    13    14   ar
    12    14    15   ar
    13    15    16   ar
    14    16    17   ar
    15    17    12   ar
    16     5     6    1
    17     2     3    1
@<TRIPOS>MOLECULE
*****
 17 17 0 0 0
SMALL
GASTEIGER

@<TRIPOS>ATOM
      1 C         138.6876  144.8126  163.0672 C.3     1  UNL1        0.1697
      2 O         137.5899  144.2272  162.2292 O.3     1  UNL1       -0.3793
      3 H         137.6974  144.5144  161.3089 H       1  UNL1        0.2106
      4 C         139.7253  145.6926  162.4356 C.3     1  UNL1        0.1020
      5 N         141.0360  145.9221  163.1279 N.3     1  UNL1       -0.2964
      6 H         141.3618  146.8457  162.8428 H       1  UNL1        0.1233
      7 C         143.2896  144.8928  163.9103 C.3     1  UNL1        0.0171
      8 C         142.1769  144.9735  162.9076 C.3     1  UNL1        0.0541
      9 C         142.2050  144.1055  161.6845 C.3     1  UNL1        0.0171
     10 C         138.7476  144.5181  164.5368 C.3     1  UNL1        0.2358
     11 O         139.8693  143.6906  165.0907 O.3     1  UNL1       -0.4728
     12 C         139.5945  142.3162  165.6250 C.ar    1  UNL1        0.1387
     13 C         138.5874  141.4354  164.9470 C.ar    1  UNL1        0.0369
     14 C         138.3125  140.0611  165.4814 C.ar    1  UNL1        0.0031
     15 C         139.0449  139.5675  166.6938 C.ar    1  UNL1        0.0002
     16 C         140.0520  140.4482  167.3718 C.ar    1  UNL1        0.0031
     17 C         140.3268  141.8226  166.8375 C.ar    1  UNL1        0.0369
@<TRIPOS>BOND
     1     7     8    1
     2     8     9    1
     3     8     5    1
     4     5     4    1
     5     4     1    1
     6     1     2    1
     7     1    10    1
     8    10    11    1
     9    11    12    1
    10    12    13   ar
    11    13    14   ar
    12    14    15   ar
    13    15    16   ar
    14    16    17   ar
    15    17    12   ar
    16     5     6    1
    17     2     3    1
@<TRIPOS>MOLECULE
*****
 17 17 0 0 0
SMALL
GASTEIGER

@<TRIPOS>ATOM
      1 C         141.2589  137.8586  163.4290 C.3     1  UNL1        0.1697
      2 O         141.6161  136.9625  162.2804 O.3     1  UNL1       -0.3793
      3 H         140.8050  136.6205  161.8728 H       1  UNL1        0.2106
      4 C         139.8189  138.0953  163.7761 C.3     1  UNL1        0.1020
      5 N         139.3183  137.7806  165.1546 N.3     1  UNL1       -0.2964
      6 H         138.6385  137.0266  165.0561 H       1  UNL1        0.1233
      7 C         137.6420  138.4805  167.0122 C.3     1  UNL1        0.0171
      8 C         138.6623  138.8502  165.9766 C.3     1  UNL1        0.0541
      9 C         139.0266  140.2896  165.7630 C.3     1  UNL1        0.0171
     10 C         142.3418  138.5182  164.2306 C.3     1  UNL1        0.2358
     11 O         142.3369  138.4134  165.7269 O.3     1  UNL1       -0.4728
     12 C         142.5594  139.6372  166.5651 C.ar    1  UNL1        0.1387
     13 C         142.8514  140.9535  165.9079 C.ar    1  UNL1        0.0369
     14 C         143.0739  142.1774  166.7462 C.ar    1  UNL1        0.0031
     15 C         143.0043  142.0849  168.2417 C.ar    1  UNL1        0.0002
     16 C         142.7122  140.7686  168.8989 C.ar    1  UNL1        0.0031
     17 C         142.4897  139.5448  168.0606 C.ar    1  UNL1        0.0369
@<TRIPOS>BOND
     1     7     8    1
     2     8     9    1
     3     8     5    1
     4     5     4    1
     5     4     1    1
     6     1     2    1
     7     1    10    1
     8    10    11    1
     9    11    12    1
    10    12    13   ar
    11    13    14   ar
    12    14    15   ar
    13    15    16   ar
    14    16    17   ar
    15    17    12   ar
    16     5     6    1
    17     2     3    1
@<TRIPOS>MOLECULE
*****
 17 17 0 0 0
SMALL
GASTEIGER

@<TRIPOS>ATOM
      1 C         143.4113  138.2648  162.2177 C.3     1  UNL1        0.1697
      2 O         144.6061  137.9254  161.3768 O.3     1  UNL1       -0.3793
      3 H         144.3338  137.3492  160.6456 H       1  UNL1        0.2106
      4 C         142.0611  137.7198  161.8570 C.3     1  UNL1        0.1020
      5 N         141.2406  137.0049  162.8893 N.3     1  UNL1       -0.2964
      6 H         141.0638  136.0677  162.5276 H       1  UNL1        0.1233
      7 C         138.9174  137.9933  162.2763 C.3     1  UNL1        0.0171
      8 C         139.9141  137.5634  163.3116 C.3     1  UNL1        0.0541
      9 C         139.5842  137.6921  164.7693 C.3     1  UNL1        0.0171
     10 C         143.5665  139.1491  163.4193 C.3     1  UNL1        0.2358
     11 O         143.0133  138.7171  164.7449 O.3     1  UNL1       -0.4728
     12 C         142.9457  139.6919  165.8830 C.ar    1  UNL1        0.1387
     13 C         142.6955  139.2001  167.2778 C.ar    1  UNL1        0.0369
     14 C         142.6279  140.1749  168.4159 C.ar    1  UNL1        0.0031
     15 C         142.8104  141.6414  168.1592 C.ar    1  UNL1        0.0002
     16 C         143.0605  142.1332  166.7644 C.ar    1  UNL1        0.0031
     17 C         143.1282  141.1584  165.6263 C.ar    1  UNL1        0.0369
@<TRIPOS>BOND
     1     7     8    1
     2     8     9    1
     3     8     5    1
     4     5     4    1
     5     4     1    1
     6     1     2    1
     7     1    10    1
     8    10    11    1
     9    11    12    1
    10    12    13   ar
    11    13    14   ar
    12    14    15   ar
    13    15    16   ar
    14    16    17   ar
    15    17    12   ar
    16     5     6    1
    17     2     3    1
@<TRIPOS>MOLECULE
*****
 17 17 0 0 0
SMALL
GASTEIGER

@<TRIPOS>ATOM
      1 C         138.0622  140.9271  163.3125 C.3     1  UNL1        0.1697
      2 O         136.6150  141.3023  163.1915 O.3     1  UNL1       -0.3793
      3 H         136.5421  142.1897  162.8067 H       1  UNL1        0.2106
      4 C         139.1255  141.8852  162.8634 C.3     1  UNL1        0.1020
      5 N         140.0853  142.4620  163.8614 N.3     1  UNL1       -0.2964
      6 H         140.5748  141.6753  164.2878 H       1  UNL1        0.1233
      7 C         138.4760  144.3044  164.7364 C.3     1  UNL1        0.0171
      8 C         139.5763  143.3156  164.9848 C.3     1  UNL1        0.0541
      9 C         140.1676  143.1806  166.3568 C.3     1  UNL1        0.0171
     10 C         138.4463  139.5938  163.8825 C.3     1  UNL1        0.2358
     11 O         139.8433  139.3643  164.3779 O.3     1  UNL1       -0.4728
     12 C         140.1697  139.5762  165.8266 C.ar    1  UNL1        0.1387
     13 C         141.6007  139.6432  166.2710 C.ar    1  UNL1        0.0369
     14 C         141.9271  139.8551  167.7196 C.ar    1  UNL1        0.0031
     15 C         140.8224  140.0000  168.7239 C.ar    1  UNL1        0.0002
     16 C         139.3913  139.9330  168.2795 C.ar    1  UNL1        0.0031
     17 C         139.0650  139.7211  166.8308 C.ar    1  UNL1        0.0369
@<TRIPOS>BOND
     1     7     8    1
     2     8     9    1
     3     8     5    1
     4     5     4    1
     5     4     1    1
     6     1     2    1
     7     1    10    1
     8    10    11    1
     9    11    12    1
    10    12    13   ar
    11    13    14   ar
    12    14    15   ar
    13    15    16   ar
    14    16    17   ar
    15    17    12   ar
    16     5     6    1
    17     2     3    1
