@<TRIPOS>MOLECULE
*****
 32 36 0 0 0
SMALL
GASTEIGER

@<TRIPOS>ATOM
      1 C         138.7898  138.0495  161.3364 C.3     1  UNL1        0.0173
      2 C         142.4202  139.1395  158.9111 C.3     1  UNL1        0.0719
      3 C         141.0752  139.0567  158.2522 C.3     1  UNL1        0.0196
      4 C         139.8651  138.6933  159.0605 C.3     1  UNL1        0.0017
      5 C         140.0000  138.4129  160.5279 C.3     1  UNL1        0.0015
      6 C         141.3449  138.4957  161.1868 C.3     1  UNL1        0.0017
      7 C         142.5551  138.8590  160.3784 C.3     1  UNL1        0.0196
      8 O         143.1441  142.0227  158.5072 O.2     1  UNL1       -0.2668
      9 C         143.9923  140.9444  157.9008 C.2     1  UNL1        0.2805
     10 N         143.6304  139.5028  158.1027 N.am    1  UNL1       -0.3000
     11 H         144.1871  138.7951  157.7047 H       1  UNL1        0.1498
     12 C         145.2025  141.3077  157.0923 C.ar    1  UNL1        0.1985
     13 C         145.6535  140.6356  155.8296 C.ar    1  UNL1        0.0454
     14 C         146.9039  141.3194  155.3616 C.ar    1  UNL1        0.0440
     15 C         147.2257  142.4141  156.3352 C.ar    1  UNL1        0.1798
     16 O         146.1741  142.4069  157.4049 O.2     1  UNL1       -0.4458
     17 C         138.0776  139.1012  162.1343 C.3     1  UNL1        0.0722
     18 N         138.5037  139.3905  163.5432 N.3     1  UNL1       -0.2698
     19 C         138.5679  140.8073  164.0313 C.3     1  UNL1        0.0939
     20 C         138.9939  141.0967  165.4402 C.3     1  UNL1        0.1095
     21 N         139.3558  139.9690  166.3609 N.pl3   1  UNL1       -0.2899
     22 C         139.2916  138.5522  165.8726 C.3     1  UNL1        0.1095
     23 C         138.8655  138.2629  164.4638 C.3     1  UNL1        0.0939
     24 C         139.7819  140.2583  167.7697 C.ar    1  UNL1        0.1400
     25 N         139.0448  139.8586  169.0134 N.ar    1  UNL1       -0.1943
     26 S         139.8273  140.3514  170.1945 S.2     1  UNL1        0.0144
     27 C         141.0479  141.0557  169.6807 C.ar    1  UNL1        0.0502
     28 C         142.1813  141.7419  170.3838 C.ar    1  UNL1        0.0080
     29 C         143.2867  142.3706  169.5883 C.ar    1  UNL1        0.0006
     30 C         143.2586  142.3131  168.0897 C.ar    1  UNL1        0.0001
     31 C         142.1253  141.6268  167.3865 C.ar    1  UNL1        0.0033
     32 C         141.0199  140.9981  168.1820 C.ar    1  UNL1        0.0396
@<TRIPOS>BOND
     1     8     9    2
     2     9    10   am
     3     2    10    1
     4     2     3    1
     5     3     4    1
     6     4     5    1
     7     5     1    1
     8     1    17    1
     9    17    18    1
    10    18    19    1
    11    19    20    1
    12    20    21    1
    13    21    24    1
    14    24    25   ar
    15    25    26   ar
    16    26    27   ar
    17    27    28   ar
    18    28    29   ar
    19    29    30   ar
    20    30    31   ar
    21    31    32   ar
    22    21    22    1
    23    22    23    1
    24     5     6    1
    25     6     7    1
    26     9    12    1
    27    12    13   ar
    28    13    14   ar
    29    14    15   ar
    30    15    16   ar
    31     7     2    1
    32    16    12   ar
    33    23    18    1
    34    32    24   ar
    35    32    27   ar
    36    10    11    1
@<TRIPOS>MOLECULE
*****
 32 36 0 0 0
SMALL
GASTEIGER

@<TRIPOS>ATOM
      1 C         142.7712  139.2555  166.7772 C.3     1  UNL1        0.0173
      2 C         143.0233  137.9590  162.4754 C.3     1  UNL1        0.0719
      3 C         144.1435  138.7459  163.0884 C.3     1  UNL1        0.0196
      4 C         144.0595  139.1781  164.5224 C.3     1  UNL1        0.0017
      5 C         142.8553  138.8233  165.3432 C.3     1  UNL1        0.0015
      6 C         141.7351  138.0364  164.7302 C.3     1  UNL1        0.0017
      7 C         141.8190  137.6042  163.2963 C.3     1  UNL1        0.0196
      8 O         142.1063  139.8055  160.2960 O.2     1  UNL1       -0.2668
      9 C         142.6488  138.4500  159.9518 C.2     1  UNL1        0.2805
     10 N         143.1073  137.5268  161.0415 N.am    1  UNL1       -0.3000
     11 H         143.4634  136.6372  160.8156 H       1  UNL1        0.1498
     12 C         142.7328  138.0178  158.5179 C.ar    1  UNL1        0.1985
     13 C         142.7219  138.9230  157.3220 C.ar    1  UNL1        0.0454
     14 C         142.8249  138.0690  156.0932 C.ar    1  UNL1        0.0440
     15 C         142.8994  136.6359  156.5295 C.ar    1  UNL1        0.1798
     16 O         142.8425  136.6042  158.0282 O.2     1  UNL1       -0.4458
     17 C         142.2637  140.6250  167.1192 C.3     1  UNL1        0.0722
     18 N         141.8634  141.5711  166.0262 N.3     1  UNL1       -0.2698
     19 C         142.8577  142.5548  165.4843 C.3     1  UNL1        0.0939
     20 C         142.4575  143.5010  164.3913 C.3     1  UNL1        0.1095
     21 N         141.0629  143.4633  163.8402 N.pl3   1  UNL1       -0.2899
     22 C         140.0686  142.4796  164.3820 C.3     1  UNL1        0.1095
     23 C         140.4689  141.5335  165.4750 C.3     1  UNL1        0.0939
     24 C         140.6626  144.4095  162.7472 C.ar    1  UNL1        0.1400
     25 N         139.7159  145.5649  162.8840 N.ar    1  UNL1       -0.1943
     26 S         139.6070  146.2357  161.5468 S.2     1  UNL1        0.0144
     27 C         140.4865  145.4950  160.5836 C.ar    1  UNL1        0.0502
     28 C         140.7775  145.7024  159.1268 C.ar    1  UNL1        0.0080
     29 C         141.7209  144.7811  158.4119 C.ar    1  UNL1        0.0006
     30 C         142.3733  143.6524  159.1538 C.ar    1  UNL1        0.0001
     31 C         142.0823  143.4450  160.6105 C.ar    1  UNL1        0.0033
     32 C         141.1389  144.3663  161.3254 C.ar    1  UNL1        0.0396
@<TRIPOS>BOND
     1     8     9    2
     2     9    10   am
     3     2    10    1
     4     2     3    1
     5     3     4    1
     6     4     5    1
     7     5     1    1
     8     1    17    1
     9    17    18    1
    10    18    19    1
    11    19    20    1
    12    20    21    1
    13    21    24    1
    14    24    25   ar
    15    25    26   ar
    16    26    27   ar
    17    27    28   ar
    18    28    29   ar
    19    29    30   ar
    20    30    31   ar
    21    31    32   ar
    22    21    22    1
    23    22    23    1
    24     5     6    1
    25     6     7    1
    26     9    12    1
    27    12    13   ar
    28    13    14   ar
    29    14    15   ar
    30    15    16   ar
    31     7     2    1
    32    16    12   ar
    33    23    18    1
    34    32    24   ar
    35    32    27   ar
    36    10    11    1
@<TRIPOS>MOLECULE
*****
 32 36 0 0 0
SMALL
GASTEIGER

@<TRIPOS>ATOM
      1 C         143.2324  138.0287  161.1785 C.3     1  UNL1        0.0173
      2 C         139.7566  139.0034  158.4918 C.3     1  UNL1        0.0719
      3 C         141.1477  138.9605  157.9326 C.3     1  UNL1        0.0196
      4 C         142.3064  138.6356  158.8281 C.3     1  UNL1        0.0017
      5 C         142.0738  138.3536  160.2829 C.3     1  UNL1        0.0015
      6 C         140.6826  138.3966  160.8421 C.3     1  UNL1        0.0017
      7 C         139.5239  138.7215  159.9466 C.3     1  UNL1        0.0196
      8 O         138.6073  141.7746  158.4716 O.2     1  UNL1       -0.2668
      9 C         138.0233  140.7139  157.5862 C.2     1  UNL1        0.2805
     10 N         138.5979  139.3284  157.5963 N.am    1  UNL1       -0.3000
     11 H         138.2146  138.6323  157.0151 H       1  UNL1        0.1498
     12 C         136.8647  141.0388  156.6906 C.ar    1  UNL1        0.1985
     13 C         136.8441  142.0914  155.6223 C.ar    1  UNL1        0.0454
     14 C         135.4898  142.0711  154.9776 C.ar    1  UNL1        0.0440
     15 C         134.6734  141.0059  155.6474 C.ar    1  UNL1        0.1798
     16 O         135.5232  140.3678  156.7062 O.2     1  UNL1       -0.4458
     17 C         143.9025  139.1177  161.9627 C.3     1  UNL1        0.0722
     18 N         143.5589  139.3211  163.4086 N.3     1  UNL1       -0.2698
     19 C         142.7460  138.2929  164.1381 C.3     1  UNL1        0.0939
     20 C         142.4024  138.4963  165.5839 C.3     1  UNL1        0.1095
     21 N         142.8716  139.7279  166.3003 N.pl3   1  UNL1       -0.2899
     22 C         143.6845  140.7560  165.5708 C.3     1  UNL1        0.1095
     23 C         144.0281  140.5526  164.1249 C.3     1  UNL1        0.0939
     24 C         142.5280  139.9313  167.7462 C.ar    1  UNL1        0.1400
     25 N         142.9290  139.0373  168.8820 N.ar    1  UNL1       -0.1943
     26 S         142.3718  139.6180  170.1478 S.2     1  UNL1        0.0144
     27 C         141.6265  140.8708  169.7944 C.ar    1  UNL1        0.0502
     28 C         140.8724  141.8602  170.6324 C.ar    1  UNL1        0.0080
     29 C         140.2148  143.0433  169.9861 C.ar    1  UNL1        0.0006
     30 C         140.3113  143.2370  168.5018 C.ar    1  UNL1        0.0001
     31 C         141.0654  142.2476  167.6638 C.ar    1  UNL1        0.0033
     32 C         141.7230  141.0645  168.3101 C.ar    1  UNL1        0.0396
@<TRIPOS>BOND
     1     8     9    2
     2     9    10   am
     3     2    10    1
     4     2     3    1
     5     3     4    1
     6     4     5    1
     7     5     1    1
     8     1    17    1
     9    17    18    1
    10    18    19    1
    11    19    20    1
    12    20    21    1
    13    21    24    1
    14    24    25   ar
    15    25    26   ar
    16    26    27   ar
    17    27    28   ar
    18    28    29   ar
    19    29    30   ar
    20    30    31   ar
    21    31    32   ar
    22    21    22    1
    23    22    23    1
    24     5     6    1
    25     6     7    1
    26     9    12    1
    27    12    13   ar
    28    13    14   ar
    29    14    15   ar
    30    15    16   ar
    31     7     2    1
    32    16    12   ar
    33    23    18    1
    34    32    24   ar
    35    32    27   ar
    36    10    11    1
@<TRIPOS>MOLECULE
*****
 32 36 0 0 0
SMALL
GASTEIGER

@<TRIPOS>ATOM
      1 C         140.5975  142.8044  167.7607 C.3     1  UNL1        0.0173
      2 C         142.9106  139.9937  170.4062 C.3     1  UNL1        0.0719
      3 C         141.5107  139.6511  169.9906 C.3     1  UNL1        0.0196
      4 C         140.7396  140.5880  169.1088 C.3     1  UNL1        0.0017
      5 C         141.3685  141.8675  168.6426 C.3     1  UNL1        0.0015
      6 C         142.7685  142.2101  169.0582 C.3     1  UNL1        0.0017
      7 C         143.5396  141.2732  169.9401 C.3     1  UNL1        0.0196
      8 O         143.6349  137.2560  169.4159 O.2     1  UNL1       -0.2668
      9 C         144.0439  137.6880  170.7929 C.2     1  UNL1        0.2805
     10 N         143.6817  139.0568  171.2881 N.am    1  UNL1       -0.3000
     11 H         143.9502  139.3403  172.1919 H       1  UNL1        0.1498
     12 C         144.8150  136.7511  171.6748 C.ar    1  UNL1        0.1985
     13 C         144.5904  135.2735  171.8012 C.ar    1  UNL1        0.0454
     14 C         145.5827  134.7367  172.7897 C.ar    1  UNL1        0.0440
     15 C         146.4206  135.8825  173.2743 C.ar    1  UNL1        0.1798
     16 O         145.9461  137.1276  172.5852 O.2     1  UNL1       -0.4458
     17 C         139.7340  142.2600  166.6616 C.3     1  UNL1        0.0722
     18 N         139.9622  142.6937  165.2439 N.3     1  UNL1       -0.2698
     19 C         140.2187  144.1387  164.9337 C.3     1  UNL1        0.0939
     20 C         140.4469  144.5723  163.5160 C.3     1  UNL1        0.1095
     21 N         140.4186  143.5610  162.4085 N.pl3   1  UNL1       -0.2899
     22 C         140.1622  142.1161  162.7188 C.3     1  UNL1        0.1095
     23 C         139.9340  141.6824  164.1365 C.3     1  UNL1        0.0939
     24 C         140.6469  143.9946  160.9908 C.ar    1  UNL1        0.1400
     25 N         139.7620  144.9075  160.1947 N.ar    1  UNL1       -0.1943
     26 S         140.3683  145.0686  158.8322 S.2     1  UNL1        0.0144
     27 C         141.6279  144.2553  158.7862 C.ar    1  UNL1        0.0502
     28 C         142.6403  144.0334  157.7019 C.ar    1  UNL1        0.0080
     29 C         143.8248  143.1477  157.9517 C.ar    1  UNL1        0.0006
     30 C         143.9969  142.4840  159.2858 C.ar    1  UNL1        0.0001
     31 C         142.9846  142.7059  160.3701 C.ar    1  UNL1        0.0033
     32 C         141.8000  143.5915  160.1203 C.ar    1  UNL1        0.0396
@<TRIPOS>BOND
     1     8     9    2
     2     9    10   am
     3     2    10    1
     4     2     3    1
     5     3     4    1
     6     4     5    1
     7     5     1    1
     8     1    17    1
     9    17    18    1
    10    18    19    1
    11    19    20    1
    12    20    21    1
    13    21    24    1
    14    24    25   ar
    15    25    26   ar
    16    26    27   ar
    17    27    28   ar
    18    28    29   ar
    19    29    30   ar
    20    30    31   ar
    21    31    32   ar
    22    21    22    1
    23    22    23    1
    24     5     6    1
    25     6     7    1
    26     9    12    1
    27    12    13   ar
    28    13    14   ar
    29    14    15   ar
    30    15    16   ar
    31     7     2    1
    32    16    12   ar
    33    23    18    1
    34    32    24   ar
    35    32    27   ar
    36    10    11    1
@<TRIPOS>MOLECULE
*****
 32 36 0 0 0
SMALL
GASTEIGER

@<TRIPOS>ATOM
      1 C         138.4438  141.5340  154.3859 C.3     1  UNL1        0.0173
      2 C         134.3180  139.9928  155.3089 C.3     1  UNL1        0.0719
      3 C         134.6158  141.4579  155.4303 C.3     1  UNL1        0.0196
      4 C         135.9911  141.9717  155.1227 C.3     1  UNL1        0.0017
      5 C         137.0684  141.0203  154.6936 C.3     1  UNL1        0.0015
      6 C         136.7706  139.5552  154.5722 C.3     1  UNL1        0.0017
      7 C         135.3953  139.0414  154.8798 C.3     1  UNL1        0.0196
      8 O         133.6562  139.0417  158.0762 O.2     1  UNL1       -0.2668
      9 C         132.6118  139.0035  157.0001 C.2     1  UNL1        0.2805
     10 N         132.9427  139.4790  155.6165 N.am    1  UNL1       -0.3000
     11 H         132.2572  139.4539  154.9103 H       1  UNL1        0.1498
     12 C         131.2365  138.4897  157.3077 C.ar    1  UNL1        0.1985
     13 C         130.1826  138.1342  156.3014 C.ar    1  UNL1        0.0454
     14 C         128.9684  137.6660  157.0474 C.ar    1  UNL1        0.0440
     15 C         129.2719  137.7321  158.5148 C.ar    1  UNL1        0.1798
     16 O         130.6737  138.2412  158.6757 O.2     1  UNL1       -0.4458
     17 C         139.5546  141.3427  155.3756 C.3     1  UNL1        0.0722
     18 N         139.2450  141.2383  156.8396 N.3     1  UNL1       -0.2698
     19 C         139.2293  139.8961  157.5091 C.3     1  UNL1        0.0939
     20 C         138.9198  139.7918  158.9731 C.3     1  UNL1        0.1095
     21 N         138.6260  141.0298  159.7677 N.pl3   1  UNL1       -0.2899
     22 C         138.6417  142.3719  159.0981 C.3     1  UNL1        0.1095
     23 C         138.9512  142.4762  157.6341 C.3     1  UNL1        0.0939
     24 C         138.3164  140.9255  161.2317 C.ar    1  UNL1        0.1400
     25 N         137.5438  141.9231  162.0427 N.ar    1  UNL1       -0.1943
     26 S         137.4751  141.4194  163.4539 S.2     1  UNL1        0.0144
     27 C         138.2052  140.1105  163.5151 C.ar    1  UNL1        0.0502
     28 C         138.4638  139.1572  164.6439 C.ar    1  UNL1        0.0080
     29 C         139.2423  137.8986  164.3992 C.ar    1  UNL1        0.0006
     30 C         139.7623  137.5934  163.0258 C.ar    1  UNL1        0.0001
     31 C         139.5038  138.5467  161.8969 C.ar    1  UNL1        0.0033
     32 C         138.7252  139.8052  162.1416 C.ar    1  UNL1        0.0396
@<TRIPOS>BOND
     1     8     9    2
     2     9    10   am
     3     2    10    1
     4     2     3    1
     5     3     4    1
     6     4     5    1
     7     5     1    1
     8     1    17    1
     9    17    18    1
    10    18    19    1
    11    19    20    1
    12    20    21    1
    13    21    24    1
    14    24    25   ar
    15    25    26   ar
    16    26    27   ar
    17    27    28   ar
    18    28    29   ar
    19    29    30   ar
    20    30    31   ar
    21    31    32   ar
    22    21    22    1
    23    22    23    1
    24     5     6    1
    25     6     7    1
    26     9    12    1
    27    12    13   ar
    28    13    14   ar
    29    14    15   ar
    30    15    16   ar
    31     7     2    1
    32    16    12   ar
    33    23    18    1
    34    32    24   ar
    35    32    27   ar
    36    10    11    1
@<TRIPOS>MOLECULE
*****
 32 36 0 0 0
SMALL
GASTEIGER

@<TRIPOS>ATOM
      1 C         143.8465  137.7646  161.2032 C.3     1  UNL1        0.0173
      2 C         142.5693  139.6189  165.0994 C.3     1  UNL1        0.0719
      3 C         143.8586  140.0370  164.4569 C.3     1  UNL1        0.0196
      4 C         144.2844  139.4189  163.1581 C.3     1  UNL1        0.0017
      5 C         143.4208  138.3828  162.5020 C.3     1  UNL1        0.0015
      6 C         142.1314  137.9647  163.1445 C.3     1  UNL1        0.0017
      7 C         141.7057  138.5828  164.4432 C.3     1  UNL1        0.0196
      8 O         143.4647  138.4163  167.6979 O.2     1  UNL1       -0.2668
      9 C         142.5912  139.6357  167.6973 C.2     1  UNL1        0.2805
     10 N         142.1435  140.2370  166.3981 N.am    1  UNL1       -0.3000
     11 H         141.5702  141.0374  166.3978 H       1  UNL1        0.1498
     12 C         142.1654  140.2539  168.9960 C.ar    1  UNL1        0.1985
     13 C         142.7937  141.4472  169.6524 C.ar    1  UNL1        0.0454
     14 C         142.0530  141.7180  170.9283 C.ar    1  UNL1        0.0440
     15 C         140.9669  140.6920  171.0606 C.ar    1  UNL1        0.1798
     16 O         141.0363  139.7871  169.8662 O.2     1  UNL1       -0.4458
     17 C         142.9715  137.8888  159.9912 C.3     1  UNL1        0.0722
     18 N         143.3022  138.8930  158.9271 N.3     1  UNL1       -0.2698
     19 C         143.9209  140.2070  159.3022 C.3     1  UNL1        0.0939
     20 C         144.2515  141.2112  158.2382 C.3     1  UNL1        0.1095
     21 N         143.9634  140.9014  156.7990 N.pl3   1  UNL1       -0.2899
     22 C         143.3448  139.5875  156.4240 C.3     1  UNL1        0.1095
     23 C         143.0141  138.5833  157.4880 C.3     1  UNL1        0.0939
     24 C         144.2941  141.9057  155.7349 C.ar    1  UNL1        0.1400
     25 N         143.3109  142.7687  155.0011 N.ar    1  UNL1       -0.1943
     26 S         144.0752  143.6196  154.0305 S.2     1  UNL1        0.0144
     27 C         145.5307  143.2824  154.1646 C.ar    1  UNL1        0.0502
     28 C         146.7502  143.8030  153.4635 C.ar    1  UNL1        0.0080
     29 C         148.1051  143.2644  153.8159 C.ar    1  UNL1        0.0006
     30 C         148.2404  142.2051  154.8693 C.ar    1  UNL1        0.0001
     31 C         147.0208  141.6845  155.5703 C.ar    1  UNL1        0.0033
     32 C         145.6659  142.2231  155.2180 C.ar    1  UNL1        0.0396
@<TRIPOS>BOND
     1     8     9    2
     2     9    10   am
     3     2    10    1
     4     2     3    1
     5     3     4    1
     6     4     5    1
     7     5     1    1
     8     1    17    1
     9    17    18    1
    10    18    19    1
    11    19    20    1
    12    20    21    1
    13    21    24    1
    14    24    25   ar
    15    25    26   ar
    16    26    27   ar
    17    27    28   ar
    18    28    29   ar
    19    29    30   ar
    20    30    31   ar
    21    31    32   ar
    22    21    22    1
    23    22    23    1
    24     5     6    1
    25     6     7    1
    26     9    12    1
    27    12    13   ar
    28    13    14   ar
    29    14    15   ar
    30    15    16   ar
    31     7     2    1
    32    16    12   ar
    33    23    18    1
    34    32    24   ar
    35    32    27   ar
    36    10    11    1
@<TRIPOS>MOLECULE
*****
 32 36 0 0 0
SMALL
GASTEIGER

@<TRIPOS>ATOM
      1 C         138.9106  139.7837  159.2347 C.3     1  UNL1        0.0173
      2 C         139.1831  140.8194  163.6053 C.3     1  UNL1        0.0719
      3 C         140.4324  140.6978  162.7841 C.3     1  UNL1        0.0196
      4 C         140.3416  140.3526  161.3272 C.3     1  UNL1        0.0017
      5 C         139.0015  140.1289  160.6916 C.3     1  UNL1        0.0015
      6 C         137.7522  140.2504  161.5128 C.3     1  UNL1        0.0017
      7 C         137.8429  140.5957  162.9697 C.3     1  UNL1        0.0196
      8 O         139.6168  138.6540  165.6359 O.2     1  UNL1       -0.2668
      9 C         139.4907  140.0819  166.0775 C.2     1  UNL1        0.2805
     10 N         139.2738  141.1646  165.0622 N.am    1  UNL1       -0.3000
     11 H         139.1911  142.1018  165.3521 H       1  UNL1        0.1498
     12 C         139.5814  140.4272  167.5344 C.ar    1  UNL1        0.1985
     13 C         140.3114  141.6000  168.1187 C.ar    1  UNL1        0.0454
     14 C         140.1392  141.5579  169.6082 C.ar    1  UNL1        0.0440
     15 C         139.3028  140.3591  169.9445 C.ar    1  UNL1        0.1798
     16 O         138.9580  139.6603  168.6627 O.2     1  UNL1       -0.4458
     17 C         140.1363  139.8431  158.3720 C.3     1  UNL1        0.0722
     18 N         140.6411  138.6010  157.6995 N.3     1  UNL1       -0.2698
     19 C         139.7656  137.8649  156.7291 C.3     1  UNL1        0.0939
     20 C         140.2705  136.6228  156.0565 C.3     1  UNL1        0.1095
     21 N         141.6508  136.1167  156.3545 N.pl3   1  UNL1       -0.2899
     22 C         142.5262  136.8528  157.3248 C.3     1  UNL1        0.1095
     23 C         142.0214  138.0950  157.9974 C.3     1  UNL1        0.0939
     24 C         142.1556  134.8746  155.6819 C.ar    1  UNL1        0.1400
     25 N         141.7658  134.3906  154.3167 N.ar    1  UNL1       -0.1943
     26 S         142.5082  133.1153  154.0476 S.2     1  UNL1        0.0144
     27 C         143.3568  132.8110  155.2465 C.ar    1  UNL1        0.0502
     28 C         144.2997  131.6844  155.5490 C.ar    1  UNL1        0.0080
     29 C         145.0247  131.6451  156.8615 C.ar    1  UNL1        0.0006
     30 C         144.8068  132.7324  157.8716 C.ar    1  UNL1        0.0001
     31 C         143.8639  133.8590  157.5691 C.ar    1  UNL1        0.0033
     32 C         143.1389  133.8983  156.2566 C.ar    1  UNL1        0.0396
@<TRIPOS>BOND
     1     8     9    2
     2     9    10   am
     3     2    10    1
     4     2     3    1
     5     3     4    1
     6     4     5    1
     7     5     1    1
     8     1    17    1
     9    17    18    1
    10    18    19    1
    11    19    20    1
    12    20    21    1
    13    21    24    1
    14    24    25   ar
    15    25    26   ar
    16    26    27   ar
    17    27    28   ar
    18    28    29   ar
    19    29    30   ar
    20    30    31   ar
    21    31    32   ar
    22    21    22    1
    23    22    23    1
    24     5     6    1
    25     6     7    1
    26     9    12    1
    27    12    13   ar
    28    13    14   ar
    29    14    15   ar
    30    15    16   ar
    31     7     2    1
    32    16    12   ar
    33    23    18    1
    34    32    24   ar
    35    32    27   ar
    36    10    11    1
@<TRIPOS>MOLECULE
*****
 32 36 0 0 0
SMALL
GASTEIGER

@<TRIPOS>ATOM
      1 C         140.5334  143.5692  154.6378 C.3     1  UNL1        0.0173
      2 C         136.7424  141.6047  156.0584 C.3     1  UNL1        0.0719
      3 C         136.9495  143.0753  156.2693 C.3     1  UNL1        0.0196
      4 C         138.2132  143.7302  155.7957 C.3     1  UNL1        0.0017
      5 C         139.2697  142.9144  155.1114 C.3     1  UNL1        0.0015
      6 C         139.0625  141.4438  154.9005 C.3     1  UNL1        0.0017
      7 C         137.7988  140.7890  155.3741 C.3     1  UNL1        0.0196
      8 O         134.3619  141.4469  154.2394 O.2     1  UNL1       -0.2668
      9 C         134.2885  140.8709  155.6224 C.2     1  UNL1        0.2805
     10 N         135.4787  140.9498  156.5319 N.am    1  UNL1       -0.3000
     11 H         135.4304  140.5718  157.4397 H       1  UNL1        0.1498
     12 C         133.0248  140.2160  156.0961 C.ar    1  UNL1        0.1985
     13 C         132.9090  138.8351  156.6701 C.ar    1  UNL1        0.0454
     14 C         131.4677  138.5928  157.0076 C.ar    1  UNL1        0.0440
     15 C         130.6927  139.8239  156.6421 C.ar    1  UNL1        0.1798
     16 O         131.6551  140.8272  156.0787 O.2     1  UNL1       -0.4458
     17 C         141.7792  143.4841  155.4690 C.3     1  UNL1        0.0722
     18 N         141.7101  143.7144  156.9496 N.3     1  UNL1       -0.2698
     19 C         141.9101  142.5688  157.8970 C.3     1  UNL1        0.0939
     20 C         141.8410  142.7992  159.3776 C.3     1  UNL1        0.1095
     21 N         141.5720  144.1752  159.9108 N.pl3   1  UNL1       -0.2899
     22 C         141.3721  145.3207  158.9634 C.3     1  UNL1        0.1095
     23 C         141.4411  145.0904  157.4828 C.3     1  UNL1        0.0939
     24 C         141.5030  144.4056  161.3914 C.ar    1  UNL1        0.1400
     25 N         142.6504  144.7881  162.2787 N.ar    1  UNL1       -0.1943
     26 S         142.1309  144.9127  163.6803 S.2     1  UNL1        0.0144
     27 C         140.6624  144.6073  163.6593 C.ar    1  UNL1        0.0502
     28 C         139.6286  144.5741  164.7456 C.ar    1  UNL1        0.0080
     29 C         138.2066  144.2274  164.4172 C.ar    1  UNL1        0.0006
     30 C         137.8186  143.9140  163.0026 C.ar    1  UNL1        0.0001
     31 C         138.8524  143.9472  161.9163 C.ar    1  UNL1        0.0033
     32 C         140.2744  144.2938  162.2447 C.ar    1  UNL1        0.0396
@<TRIPOS>BOND
     1     8     9    2
     2     9    10   am
     3     2    10    1
     4     2     3    1
     5     3     4    1
     6     4     5    1
     7     5     1    1
     8     1    17    1
     9    17    18    1
    10    18    19    1
    11    19    20    1
    12    20    21    1
    13    21    24    1
    14    24    25   ar
    15    25    26   ar
    16    26    27   ar
    17    27    28   ar
    18    28    29   ar
    19    29    30   ar
    20    30    31   ar
    21    31    32   ar
    22    21    22    1
    23    22    23    1
    24     5     6    1
    25     6     7    1
    26     9    12    1
    27    12    13   ar
    28    13    14   ar
    29    14    15   ar
    30    15    16   ar
    31     7     2    1
    32    16    12   ar
    33    23    18    1
    34    32    24   ar
    35    32    27   ar
    36    10    11    1
@<TRIPOS>MOLECULE
*****
 32 36 0 0 0
SMALL
GASTEIGER

@<TRIPOS>ATOM
      1 C         138.9889  141.5085  154.2145 C.3     1  UNL1        0.0173
      2 C         134.7180  140.3791  155.0712 C.3     1  UNL1        0.0719
      3 C         135.1606  141.8048  155.2178 C.3     1  UNL1        0.0196
      4 C         136.5843  142.1813  154.9323 C.3     1  UNL1        0.0017
      5 C         137.5652  141.1321  154.5001 C.3     1  UNL1        0.0015
      6 C         137.1226  139.7064  154.3535 C.3     1  UNL1        0.0017
      7 C         135.6990  139.3299  154.6391 C.3     1  UNL1        0.0196
      8 O         133.9471  139.3827  157.7939 O.2     1  UNL1       -0.2668
      9 C         132.9090  139.5044  156.7181 C.2     1  UNL1        0.2805
     10 N         133.2944  140.0026  155.3568 N.am    1  UNL1       -0.3000
     11 H         132.6130  140.0825  154.6507 H       1  UNL1        0.1498
     12 C         131.4853  139.1279  157.0036 C.ar    1  UNL1        0.1985
     13 C         130.7863  137.8919  156.5205 C.ar    1  UNL1        0.0454
     14 C         129.3797  137.9216  157.0406 C.ar    1  UNL1        0.0440
     15 C         129.2093  139.1759  157.8452 C.ar    1  UNL1        0.1798
     16 O         130.5107  139.9216  157.8223 O.2     1  UNL1       -0.4458
     17 C         140.0667  141.1685  155.2008 C.3     1  UNL1        0.0722
     18 N         140.1437  141.8985  156.5089 N.3     1  UNL1       -0.2698
     19 C         139.8467  143.3676  156.5667 C.3     1  UNL1        0.0939
     20 C         139.9237  144.0975  157.8748 C.3     1  UNL1        0.1095
     21 N         140.2977  143.3582  159.1253 N.pl3   1  UNL1       -0.2899
     22 C         140.5947  141.8891  159.0676 C.3     1  UNL1        0.1095
     23 C         140.5177  141.1592  157.7594 C.3     1  UNL1        0.0939
     24 C         140.3747  144.0881  160.4335 C.ar    1  UNL1        0.1400
     25 N         139.2612  144.8565  161.0813 N.ar    1  UNL1       -0.1943
     26 S         139.7770  145.4210  162.3717 S.2     1  UNL1        0.0144
     27 C         141.2094  145.0016  162.5214 C.ar    1  UNL1        0.0502
     28 C         142.2250  145.2634  163.5938 C.ar    1  UNL1        0.0080
     29 C         143.6100  144.7013  163.4682 C.ar    1  UNL1        0.0006
     30 C         143.9794  143.8775  162.2703 C.ar    1  UNL1        0.0001
     31 C         142.9638  143.6158  161.1980 C.ar    1  UNL1        0.0033
     32 C         141.5788  144.1778  161.3236 C.ar    1  UNL1        0.0396
@<TRIPOS>BOND
     1     8     9    2
     2     9    10   am
     3     2    10    1
     4     2     3    1
     5     3     4    1
     6     4     5    1
     7     5     1    1
     8     1    17    1
     9    17    18    1
    10    18    19    1
    11    19    20    1
    12    20    21    1
    13    21    24    1
    14    24    25   ar
    15    25    26   ar
    16    26    27   ar
    17    27    28   ar
    18    28    29   ar
    19    29    30   ar
    20    30    31   ar
    21    31    32   ar
    22    21    22    1
    23    22    23    1
    24     5     6    1
    25     6     7    1
    26     9    12    1
    27    12    13   ar
    28    13    14   ar
    29    14    15   ar
    30    15    16   ar
    31     7     2    1
    32    16    12   ar
    33    23    18    1
    34    32    24   ar
    35    32    27   ar
    36    10    11    1
