@<TRIPOS>MOLECULE
*****
 42 47 0 0 0
SMALL
GASTEIGER

@<TRIPOS>ATOM
      1 C         138.9167  140.3686  162.0095 C.ar    1  UNL1       -0.0061
      2 C         138.5322  141.3700  163.0579 C.ar    1  UNL1       -0.0028
      3 C         138.3641  140.9360  164.4839 C.ar    1  UNL1        0.0030
      4 C         138.5805  139.5005  164.8614 C.ar    1  UNL1        0.0420
      5 C         138.9650  138.4990  163.8129 C.ar    1  UNL1        0.0030
      6 C         139.1331  138.9331  162.3870 C.ar    1  UNL1       -0.0028
      7 C         138.4124  139.0664  166.2874 C.2     1  UNL1        0.2297
      8 O         137.2934  138.1408  166.6626 O.2     1  UNL1       -0.2833
      9 C         139.3634  139.5580  167.3381 C.ar    1  UNL1        0.1873
     10 N         139.0294  139.8189  168.7770 N.ar    1  UNL1       -0.2235
     11 C         140.2749  140.2972  169.4626 C.ar    1  UNL1        0.0991
     12 C         140.5466  140.7056  170.8801 C.ar    1  UNL1        0.0206
     13 C         141.9220  141.1487  171.2824 C.ar    1  UNL1        0.0016
     14 C         143.0257  141.1834  170.2672 C.ar    1  UNL1        0.0016
     15 C         142.7540  140.7750  168.8497 C.ar    1  UNL1        0.0191
     16 C         141.3786  140.3319  168.4474 C.ar    1  UNL1        0.0830
     17 N         140.8153  139.8751  167.1344 N.ar    1  UNL1       -0.2877
     18 C         141.5711  139.7563  165.8442 C.ar    1  UNL1        0.0655
     19 C         141.8354  140.9775  165.0145 C.ar    1  UNL1        0.0184
     20 C         142.5913  140.8587  163.7243 C.ar    1  UNL1        0.0129
     21 C         143.0829  139.5184  163.2639 C.ar    1  UNL1        0.0578
     22 CL        143.8388  139.3996  161.9737 Cl      1  UNL1       -0.0822
     23 C         142.8186  138.2971  164.0936 C.ar    1  UNL1        0.0129
     24 C         142.0628  138.4159  165.3837 C.ar    1  UNL1        0.0184
     25 C         139.0848  140.8026  160.5835 C.3     1  UNL1        0.0991
     26 C         141.0350  138.0471  157.6080 C.3     1  UNL1        0.0251
     27 C         139.6320  138.5259  157.3792 C.3     1  UNL1        0.0217
     28 C         138.9819  139.4444  158.3711 C.3     1  UNL1        0.0727
     29 N         139.7349  139.8841  159.5917 N.3     1  UNL1       -0.2689
     30 C         141.1379  139.4053  159.8203 C.3     1  UNL1        0.0727
     31 C         141.7880  138.4868  158.8285 C.3     1  UNL1        0.0217
     32 C         143.3736  135.2282  156.0800 C.ar    1  UNL1        0.0500
     33 C         142.9852  135.2916  154.6324 C.ar    1  UNL1        0.0147
     34 C         141.9468  136.2734  154.1768 C.ar    1  UNL1        0.0009
     35 C         141.2968  137.1919  155.1687 C.ar    1  UNL1       -0.0042
     36 C         141.6851  137.1286  156.6161 C.ar    1  UNL1       -0.0212
     37 C         142.7236  136.1467  157.0718 C.ar    1  UNL1        0.0104
     38 C         145.0351  131.9183  157.5062 C.3     1  UNL1        0.0949
     39 C         143.9966  132.9002  157.0506 C.2     1  UNL1        0.2266
     40 O         142.5427  132.5359  157.1101 O.2     1  UNL1       -0.2748
     41 N         144.4120  134.2463  156.5356 N.am    1  UNL1       -0.2839
     42 H         145.3663  134.4854  156.4965 H       1  UNL1        0.1549
@<TRIPOS>BOND
     1    38    39    1
     2    39    40    2
     3    39    41   am
     4    41    32    1
     5    32    33   ar
     6    33    34   ar
     7    34    35   ar
     8    35    36   ar
     9    36    26    1
    10    26    27    1
    11    27    28    1
    12    28    29    1
    13    29    25    1
    14    25     1    1
    15     1     2   ar
    16     2     3   ar
    17     3     4   ar
    18     4     7    1
    19     7     8    2
    20     7     9    1
    21     9    10   ar
    22    10    11   ar
    23    11    12   ar
    24    12    13   ar
    25    13    14   ar
    26    14    15   ar
    27    15    16   ar
    28    16    17   ar
    29    17    18    1
    30    18    19   ar
    31    19    20   ar
    32    20    21   ar
    33    21    22    1
    34    21    23   ar
    35    23    24   ar
    36     4     5   ar
    37     5     6   ar
    38    29    30    1
    39    30    31    1
    40    36    37   ar
    41    37    32   ar
    42    31    26    1
    43     6     1   ar
    44    17     9   ar
    45    24    18   ar
    46    16    11   ar
    47    41    42    1
@<TRIPOS>MOLECULE
*****
 42 47 0 0 0
SMALL
GASTEIGER

@<TRIPOS>ATOM
      1 C         138.4679  138.8266  162.4725 C.ar    1  UNL1       -0.0061
      2 C         138.0948  140.1148  163.1443 C.ar    1  UNL1       -0.0028
      3 C         138.1000  140.2090  164.6414 C.ar    1  UNL1        0.0030
      4 C         138.4781  139.0148  165.4666 C.ar    1  UNL1        0.0420
      5 C         138.8512  137.7266  164.7948 C.ar    1  UNL1        0.0030
      6 C         138.8460  137.6325  163.2977 C.ar    1  UNL1       -0.0028
      7 C         138.4832  139.1089  166.9636 C.2     1  UNL1        0.2297
      8 O         137.4435  138.3824  167.7642 O.2     1  UNL1       -0.2833
      9 C         139.5281  139.9295  167.6600 C.ar    1  UNL1        0.1873
     10 N         139.3855  140.5837  169.0022 N.ar    1  UNL1       -0.2235
     11 C         140.6683  141.2985  169.3082 C.ar    1  UNL1        0.0991
     12 C         141.1054  142.1153  170.4878 C.ar    1  UNL1        0.0206
     13 C         142.4780  142.7197  170.5143 C.ar    1  UNL1        0.0016
     14 C         143.4134  142.5073  169.3611 C.ar    1  UNL1        0.0016
     15 C         142.9763  141.6904  168.1814 C.ar    1  UNL1        0.0191
     16 C         141.6037  141.0860  168.1550 C.ar    1  UNL1        0.0830
     17 N         140.8990  140.2399  167.1364 N.ar    1  UNL1       -0.2877
     18 C         141.4658  139.7843  165.8244 C.ar    1  UNL1        0.0655
     19 C         141.4949  140.7217  164.6539 C.ar    1  UNL1        0.0184
     20 C         142.0617  140.2661  163.3420 C.ar    1  UNL1        0.0129
     21 C         142.5994  138.8729  163.2006 C.ar    1  UNL1        0.0578
     22 CL        143.1662  138.4173  161.8886 Cl      1  UNL1       -0.0822
     23 C         142.5703  137.9354  164.3711 C.ar    1  UNL1        0.0129
     24 C         142.0035  138.3910  165.6831 C.ar    1  UNL1        0.0184
     25 C         138.4628  138.7325  160.9754 C.3     1  UNL1        0.0991
     26 C         140.2274  142.0550  158.5061 C.3     1  UNL1        0.0251
     27 C         138.7406  141.9581  158.6800 C.3     1  UNL1        0.0217
     28 C         138.1524  140.8506  159.5031 C.3     1  UNL1        0.0727
     29 N         139.0510  139.8400  160.1523 N.3     1  UNL1       -0.2689
     30 C         140.5377  139.9370  159.9784 C.3     1  UNL1        0.0727
     31 C         141.1259  141.0445  159.1553 C.3     1  UNL1        0.0217
     32 C         140.7913  145.6388  156.8973 C.ar    1  UNL1        0.0500
     33 C         141.9919  145.3775  156.0369 C.ar    1  UNL1        0.0147
     34 C         142.6043  144.0087  155.9996 C.ar    1  UNL1        0.0009
     35 C         142.0161  142.9012  156.8227 C.ar    1  UNL1       -0.0042
     36 C         140.8155  143.1625  157.6830 C.ar    1  UNL1       -0.0212
     37 C         140.2031  144.5313  157.7204 C.ar    1  UNL1        0.0104
     38 C         138.4748  148.7362  156.0081 C.3     1  UNL1        0.0949
     39 C         139.0872  147.3673  155.9707 C.2     1  UNL1        0.2266
     40 O         138.6080  146.3583  154.9697 O.2     1  UNL1       -0.2748
     41 N         140.1789  147.0076  156.9345 N.am    1  UNL1       -0.2839
     42 H         140.4934  147.6698  157.5916 H       1  UNL1        0.1549
@<TRIPOS>BOND
     1    38    39    1
     2    39    40    2
     3    39    41   am
     4    41    32    1
     5    32    33   ar
     6    33    34   ar
     7    34    35   ar
     8    35    36   ar
     9    36    26    1
    10    26    27    1
    11    27    28    1
    12    28    29    1
    13    29    25    1
    14    25     1    1
    15     1     2   ar
    16     2     3   ar
    17     3     4   ar
    18     4     7    1
    19     7     8    2
    20     7     9    1
    21     9    10   ar
    22    10    11   ar
    23    11    12   ar
    24    12    13   ar
    25    13    14   ar
    26    14    15   ar
    27    15    16   ar
    28    16    17   ar
    29    17    18    1
    30    18    19   ar
    31    19    20   ar
    32    20    21   ar
    33    21    22    1
    34    21    23   ar
    35    23    24   ar
    36     4     5   ar
    37     5     6   ar
    38    29    30    1
    39    30    31    1
    40    36    37   ar
    41    37    32   ar
    42    31    26    1
    43     6     1   ar
    44    17     9   ar
    45    24    18   ar
    46    16    11   ar
    47    41    42    1
@<TRIPOS>MOLECULE
*****
 42 47 0 0 0
SMALL
GASTEIGER

@<TRIPOS>ATOM
      1 C         139.7902  140.8335  161.6942 C.ar    1  UNL1       -0.0061
      2 C         138.5287  141.3891  162.2858 C.ar    1  UNL1       -0.0028
      3 C         138.1539  141.0573  163.6999 C.ar    1  UNL1        0.0030
      4 C         139.0407  140.1699  164.5223 C.ar    1  UNL1        0.0420
      5 C         140.3022  139.6144  163.9306 C.ar    1  UNL1        0.0030
      6 C         140.6769  139.9461  162.5166 C.ar    1  UNL1       -0.0028
      7 C         138.6660  139.8381  165.9363 C.2     1  UNL1        0.2297
      8 O         137.4708  138.9748  166.2126 O.2     1  UNL1       -0.2833
      9 C         139.4864  140.3697  167.0740 C.ar    1  UNL1        0.1873
     10 N         139.7073  139.6919  168.3938 N.ar    1  UNL1       -0.2235
     11 C         140.5873  140.5756  169.2272 C.ar    1  UNL1        0.0991
     12 C         141.1363  140.4239  170.6149 C.ar    1  UNL1        0.0206
     13 C         142.0083  141.4962  171.1978 C.ar    1  UNL1        0.0016
     14 C         142.3313  142.7202  170.3931 C.ar    1  UNL1        0.0016
     15 C         141.7823  142.8719  169.0054 C.ar    1  UNL1        0.0191
     16 C         140.9103  141.7996  168.4225 C.ar    1  UNL1        0.0830
     17 N         140.2299  141.6723  167.0918 N.ar    1  UNL1       -0.2877
     18 C         140.2836  142.6721  165.9749 C.ar    1  UNL1        0.0655
     19 C         141.4450  142.6747  165.0257 C.ar    1  UNL1        0.0184
     20 C         141.4987  143.6746  163.9088 C.ar    1  UNL1        0.0129
     21 C         140.3909  144.6719  163.7411 C.ar    1  UNL1        0.0578
     22 CL        140.4445  145.6717  162.6242 Cl      1  UNL1       -0.0822
     23 C         139.2294  144.6693  164.6903 C.ar    1  UNL1        0.0129
     24 C         139.1757  143.6695  165.8072 C.ar    1  UNL1        0.0184
     25 C         140.1649  141.1653  160.2801 C.3     1  UNL1        0.0991
     26 C         141.4534  137.8969  157.4681 C.3     1  UNL1        0.0251
     27 C         142.4834  138.7248  158.1780 C.3     1  UNL1        0.0217
     28 C         142.0539  139.8142  159.1153 C.3     1  UNL1        0.0727
     29 N         140.5944  140.0758  159.3428 N.3     1  UNL1       -0.2689
     30 C         139.5645  139.2480  158.6329 C.3     1  UNL1        0.0727
     31 C         139.9940  138.1585  157.6955 C.3     1  UNL1        0.0217
     32 C         143.3681  134.7392  156.0146 C.ar    1  UNL1        0.0500
     33 C         142.7418  134.6286  154.6560 C.ar    1  UNL1        0.0147
     34 C         141.6862  135.6074  154.2348 C.ar    1  UNL1        0.0009
     35 C         141.2567  136.6968  155.1722 C.ar    1  UNL1       -0.0042
     36 C         141.8829  136.8075  156.5307 C.ar    1  UNL1       -0.0212
     37 C         142.9386  135.8286  156.9519 C.ar    1  UNL1        0.0104
     38 C         145.0845  131.4554  157.4360 C.3     1  UNL1        0.0949
     39 C         144.0288  132.4342  157.0149 C.2     1  UNL1        0.2266
     40 O         142.5781  132.0869  157.1729 O.2     1  UNL1       -0.2748
     41 N         144.4237  133.7603  156.4357 N.am    1  UNL1       -0.2839
     42 H         145.3759  133.9883  156.3320 H       1  UNL1        0.1549
@<TRIPOS>BOND
     1    38    39    1
     2    39    40    2
     3    39    41   am
     4    41    32    1
     5    32    33   ar
     6    33    34   ar
     7    34    35   ar
     8    35    36   ar
     9    36    26    1
    10    26    27    1
    11    27    28    1
    12    28    29    1
    13    29    25    1
    14    25     1    1
    15     1     2   ar
    16     2     3   ar
    17     3     4   ar
    18     4     7    1
    19     7     8    2
    20     7     9    1
    21     9    10   ar
    22    10    11   ar
    23    11    12   ar
    24    12    13   ar
    25    13    14   ar
    26    14    15   ar
    27    15    16   ar
    28    16    17   ar
    29    17    18    1
    30    18    19   ar
    31    19    20   ar
    32    20    21   ar
    33    21    22    1
    34    21    23   ar
    35    23    24   ar
    36     4     5   ar
    37     5     6   ar
    38    29    30    1
    39    30    31    1
    40    36    37   ar
    41    37    32   ar
    42    31    26    1
    43     6     1   ar
    44    17     9   ar
    45    24    18   ar
    46    16    11   ar
    47    41    42    1
@<TRIPOS>MOLECULE
*****
 42 47 0 0 0
SMALL
GASTEIGER

@<TRIPOS>ATOM
      1 C         143.8839  141.9296  162.0714 C.ar    1  UNL1       -0.0061
      2 C         142.8869  140.8455  161.7875 C.ar    1  UNL1       -0.0028
      3 C         142.4251  139.9430  162.8930 C.ar    1  UNL1        0.0030
      4 C         142.9604  140.1246  164.2825 C.ar    1  UNL1        0.0420
      5 C         143.9574  141.2088  164.5663 C.ar    1  UNL1        0.0030
      6 C         144.4191  142.1113  163.4608 C.ar    1  UNL1       -0.0028
      7 C         142.4986  139.2221  165.3880 C.2     1  UNL1        0.2297
      8 O         142.3436  137.7509  165.1398 O.2     1  UNL1       -0.2833
      9 C         142.1919  139.7907  166.7417 C.ar    1  UNL1        0.1873
     10 N         142.8407  139.3908  168.0337 N.ar    1  UNL1       -0.2235
     11 C         142.2323  140.2121  169.1316 C.ar    1  UNL1        0.0991
     12 C         142.4791  140.2508  170.6106 C.ar    1  UNL1        0.0206
     13 C         141.7010  141.1970  171.4763 C.ar    1  UNL1        0.0016
     14 C         140.6762  142.1044  170.8628 C.ar    1  UNL1        0.0016
     15 C         140.4294  142.0657  169.3838 C.ar    1  UNL1        0.0191
     16 C         141.2075  141.1195  168.5182 C.ar    1  UNL1        0.0830
     17 N         141.1825  140.8591  167.0412 N.ar    1  UNL1       -0.2877
     18 C         140.3026  141.5465  166.0395 C.ar    1  UNL1        0.0655
     19 C         140.6810  142.8985  165.5117 C.ar    1  UNL1        0.0184
     20 C         139.8011  143.5859  164.5100 C.ar    1  UNL1        0.0129
     21 C         138.5428  142.9211  164.0361 C.ar    1  UNL1        0.0578
     22 CL        137.6629  143.6084  163.0344 Cl      1  UNL1       -0.0822
     23 C         138.1643  141.5690  164.5639 C.ar    1  UNL1        0.0129
     24 C         139.0442  140.8816  165.5656 C.ar    1  UNL1        0.0184
     25 C         144.3457  142.8322  160.9658 C.3     1  UNL1        0.0991
     26 C         141.3607  144.5533  158.0713 C.3     1  UNL1        0.0251
     27 C         141.1991  144.7886  159.5440 C.3     1  UNL1        0.0217
     28 C         142.1940  144.2149  160.5088 C.3     1  UNL1        0.0727
     29 N         143.3507  143.4059  160.0010 N.3     1  UNL1       -0.2689
     30 C         143.5123  143.1706  158.5284 C.3     1  UNL1        0.0727
     31 C         142.5173  143.7443  157.5636 C.3     1  UNL1        0.0217
     32 C         138.9755  147.1442  156.2417 C.ar    1  UNL1        0.0500
     33 C         138.3757  146.2743  155.1769 C.ar    1  UNL1        0.0147
     34 C         138.7710  144.8309  155.0769 C.ar    1  UNL1        0.0009
     35 C         139.7660  144.2572  156.0418 C.ar    1  UNL1       -0.0042
     36 C         140.3657  145.1270  157.1065 C.ar    1  UNL1       -0.0212
     37 C         139.9704  146.5706  157.2065 C.ar    1  UNL1        0.0104
     38 C         138.6431  151.0083  155.3997 C.3     1  UNL1        0.0949
     39 C         139.0385  149.5647  155.2997 C.2     1  UNL1        0.2266
     40 O         139.8920  149.0982  154.1579 O.2     1  UNL1       -0.2748
     41 N         138.5802  148.5877  156.3416 N.am    1  UNL1       -0.2839
     42 H         138.0199  148.8939  157.0910 H       1  UNL1        0.1549
@<TRIPOS>BOND
     1    38    39    1
     2    39    40    2
     3    39    41   am
     4    41    32    1
     5    32    33   ar
     6    33    34   ar
     7    34    35   ar
     8    35    36   ar
     9    36    26    1
    10    26    27    1
    11    27    28    1
    12    28    29    1
    13    29    25    1
    14    25     1    1
    15     1     2   ar
    16     2     3   ar
    17     3     4   ar
    18     4     7    1
    19     7     8    2
    20     7     9    1
    21     9    10   ar
    22    10    11   ar
    23    11    12   ar
    24    12    13   ar
    25    13    14   ar
    26    14    15   ar
    27    15    16   ar
    28    16    17   ar
    29    17    18    1
    30    18    19   ar
    31    19    20   ar
    32    20    21   ar
    33    21    22    1
    34    21    23   ar
    35    23    24   ar
    36     4     5   ar
    37     5     6   ar
    38    29    30    1
    39    30    31    1
    40    36    37   ar
    41    37    32   ar
    42    31    26    1
    43     6     1   ar
    44    17     9   ar
    45    24    18   ar
    46    16    11   ar
    47    41    42    1
@<TRIPOS>MOLECULE
*****
 42 47 0 0 0
SMALL
GASTEIGER

@<TRIPOS>ATOM
      1 C         142.1955  138.1268  162.2410 C.ar    1  UNL1       -0.0061
      2 C         141.2631  137.6300  163.3058 C.ar    1  UNL1       -0.0028
      3 C         141.6363  137.7654  164.7523 C.ar    1  UNL1        0.0030
      4 C         142.9419  138.3977  165.1340 C.ar    1  UNL1        0.0420
      5 C         143.8743  138.8945  164.0691 C.ar    1  UNL1        0.0030
      6 C         143.5011  138.7591  162.6226 C.ar    1  UNL1       -0.0028
      7 C         143.3151  138.5332  166.5805 C.2     1  UNL1        0.2297
      8 O         144.3940  137.6678  167.1608 O.2     1  UNL1       -0.2833
      9 C         142.6094  139.5341  167.4466 C.ar    1  UNL1        0.1873
     10 N         142.2083  139.3340  168.8780 N.ar    1  UNL1       -0.2235
     11 C         141.5319  140.5871  169.3495 C.ar    1  UNL1        0.0991
     12 C         140.9292  140.9666  170.6696 C.ar    1  UNL1        0.0206
     13 C         140.3095  142.3206  170.8496 C.ar    1  UNL1        0.0016
     14 C         140.2924  143.2952  169.7094 C.ar    1  UNL1        0.0016
     15 C         140.8951  142.9157  168.3893 C.ar    1  UNL1        0.0191
     16 C         141.5148  141.5616  168.2093 C.ar    1  UNL1        0.0830
     17 N         142.1807  140.9108  167.0333 N.ar    1  UNL1       -0.2877
     18 C         142.3825  141.5284  165.6813 C.ar    1  UNL1        0.0655
     19 C         143.6811  142.2025  165.3509 C.ar    1  UNL1        0.0184
     20 C         143.8829  142.8201  163.9989 C.ar    1  UNL1        0.0129
     21 C         142.7861  142.7636  162.9773 C.ar    1  UNL1        0.0578
     22 CL        142.9879  143.3812  161.6253 Cl      1  UNL1       -0.0822
     23 C         141.4875  142.0896  163.3076 C.ar    1  UNL1        0.0129
     24 C         141.2856  141.4720  164.6596 C.ar    1  UNL1        0.0184
     25 C         141.8223  137.9913  160.7944 C.3     1  UNL1        0.0991
     26 C         142.1593  141.5358  158.0424 C.3     1  UNL1        0.0251
     27 C         143.1033  140.3794  157.8950 C.3     1  UNL1        0.0217
     28 C         142.9909  139.1979  158.8123 C.3     1  UNL1        0.0727
     29 N         141.9346  139.1728  159.8771 N.3     1  UNL1       -0.2689
     30 C         140.9907  140.3292  160.0245 C.3     1  UNL1        0.0727
     31 C         141.1030  141.5107  159.1072 C.3     1  UNL1        0.0217
     32 C         141.6641  145.1735  156.5351 C.ar    1  UNL1        0.0500
     33 C         142.4962  145.0802  155.2905 C.ar    1  UNL1        0.0147
     34 C         143.2160  143.8056  154.9633 C.ar    1  UNL1        0.0009
     35 C         143.1037  142.6241  155.8806 C.ar    1  UNL1       -0.0042
     36 C         142.2716  142.7173  157.1251 C.ar    1  UNL1       -0.0212
     37 C         141.5518  143.9920  157.4524 C.ar    1  UNL1        0.0104
     38 C         138.8753  147.9964  156.5940 C.3     1  UNL1        0.0949
     39 C         139.5950  146.7217  156.2668 C.2     1  UNL1        0.2266
     40 O         138.9655  145.7206  155.3441 O.2     1  UNL1       -0.2748
     41 N         140.9443  146.4481  156.8623 N.am    1  UNL1       -0.2839
     42 H         141.3575  147.1052  157.4679 H       1  UNL1        0.1549
@<TRIPOS>BOND
     1    38    39    1
     2    39    40    2
     3    39    41   am
     4    41    32    1
     5    32    33   ar
     6    33    34   ar
     7    34    35   ar
     8    35    36   ar
     9    36    26    1
    10    26    27    1
    11    27    28    1
    12    28    29    1
    13    29    25    1
    14    25     1    1
    15     1     2   ar
    16     2     3   ar
    17     3     4   ar
    18     4     7    1
    19     7     8    2
    20     7     9    1
    21     9    10   ar
    22    10    11   ar
    23    11    12   ar
    24    12    13   ar
    25    13    14   ar
    26    14    15   ar
    27    15    16   ar
    28    16    17   ar
    29    17    18    1
    30    18    19   ar
    31    19    20   ar
    32    20    21   ar
    33    21    22    1
    34    21    23   ar
    35    23    24   ar
    36     4     5   ar
    37     5     6   ar
    38    29    30    1
    39    30    31    1
    40    36    37   ar
    41    37    32   ar
    42    31    26    1
    43     6     1   ar
    44    17     9   ar
    45    24    18   ar
    46    16    11   ar
    47    41    42    1
@<TRIPOS>MOLECULE
*****
 42 47 0 0 0
SMALL
GASTEIGER

@<TRIPOS>ATOM
      1 C         141.8380  138.2033  162.3434 C.ar    1  UNL1       -0.0061
      2 C         140.9481  137.7689  163.4701 C.ar    1  UNL1       -0.0028
      3 C         141.4262  137.8768  164.8878 C.ar    1  UNL1        0.0030
      4 C         142.7941  138.4192  165.1788 C.ar    1  UNL1        0.0420
      5 C         143.6840  138.8536  164.0521 C.ar    1  UNL1        0.0030
      6 C         143.2059  138.7457  162.6344 C.ar    1  UNL1       -0.0028
      7 C         143.2721  138.5271  166.5965 C.2     1  UNL1        0.2297
      8 O         144.3900  137.6514  167.0797 O.2     1  UNL1       -0.2833
      9 C         142.6323  139.5107  167.5309 C.ar    1  UNL1        0.1873
     10 N         142.2794  139.2611  168.9673 N.ar    1  UNL1       -0.2235
     11 C         141.6621  140.5128  169.5172 C.ar    1  UNL1        0.0991
     12 C         141.1223  140.8530  170.8746 C.ar    1  UNL1        0.0206
     13 C         140.5539  142.2164  171.1356 C.ar    1  UNL1        0.0016
     14 C         140.5253  143.2395  170.0391 C.ar    1  UNL1        0.0016
     15 C         141.0651  142.8993  168.6816 C.ar    1  UNL1        0.0191
     16 C         141.6335  141.5359  168.4206 C.ar    1  UNL1        0.0830
     17 N         142.2331  140.9166  167.1931 N.ar    1  UNL1       -0.2877
     18 C         142.4036  141.5857  165.8615 C.ar    1  UNL1        0.0655
     19 C         141.2682  141.6064  164.8816 C.ar    1  UNL1        0.0184
     20 C         141.4387  142.2755  163.5499 C.ar    1  UNL1        0.0129
     21 C         142.7447  142.9240  163.1982 C.ar    1  UNL1        0.0578
     22 CL        142.9152  143.5931  161.8666 Cl      1  UNL1       -0.0822
     23 C         143.8802  142.9034  164.1781 C.ar    1  UNL1        0.0129
     24 C         143.7097  142.2343  165.5097 C.ar    1  UNL1        0.0184
     25 C         141.3600  138.0954  160.9257 C.3     1  UNL1        0.0991
     26 C         143.2862  140.5807  157.7065 C.3     1  UNL1        0.0251
     27 C         143.4049  139.0857  157.6718 C.3     1  UNL1        0.0217
     28 C         142.7628  138.2573  158.7449 C.3     1  UNL1        0.0727
     29 N         142.0020  138.9238  159.8526 N.3     1  UNL1       -0.2689
     30 C         141.8834  140.4187  159.8873 C.3     1  UNL1        0.0727
     31 C         142.5254  141.2471  158.8142 C.3     1  UNL1        0.0217
     32 C         145.9664  141.9271  155.1077 C.ar    1  UNL1        0.0500
     33 C         145.2124  143.0659  154.4873 C.ar    1  UNL1        0.0147
     34 C         143.8164  143.3762  154.9400 C.ar    1  UNL1        0.0009
     35 C         143.1744  142.5478  156.0130 C.ar    1  UNL1       -0.0042
     36 C         143.9282  141.4091  156.6334 C.ar    1  UNL1       -0.0212
     37 C         145.3243  141.0987  156.1808 C.ar    1  UNL1        0.0104
     38 C         149.9175  141.5548  155.1214 C.3     1  UNL1        0.0949
     39 C         148.5215  141.8651  155.5741 C.2     1  UNL1        0.2266
     40 O         148.2846  142.4237  156.9459 O.2     1  UNL1       -0.2748
     41 N         147.3623  141.6168  154.6550 N.am    1  UNL1       -0.2839
     42 H         147.5178  141.2502  153.7547 H       1  UNL1        0.1549
@<TRIPOS>BOND
     1    38    39    1
     2    39    40    2
     3    39    41   am
     4    41    32    1
     5    32    33   ar
     6    33    34   ar
     7    34    35   ar
     8    35    36   ar
     9    36    26    1
    10    26    27    1
    11    27    28    1
    12    28    29    1
    13    29    25    1
    14    25     1    1
    15     1     2   ar
    16     2     3   ar
    17     3     4   ar
    18     4     7    1
    19     7     8    2
    20     7     9    1
    21     9    10   ar
    22    10    11   ar
    23    11    12   ar
    24    12    13   ar
    25    13    14   ar
    26    14    15   ar
    27    15    16   ar
    28    16    17   ar
    29    17    18    1
    30    18    19   ar
    31    19    20   ar
    32    20    21   ar
    33    21    22    1
    34    21    23   ar
    35    23    24   ar
    36     4     5   ar
    37     5     6   ar
    38    29    30    1
    39    30    31    1
    40    36    37   ar
    41    37    32   ar
    42    31    26    1
    43     6     1   ar
    44    17     9   ar
    45    24    18   ar
    46    16    11   ar
    47    41    42    1
@<TRIPOS>MOLECULE
*****
 42 47 0 0 0
SMALL
GASTEIGER

@<TRIPOS>ATOM
      1 C         142.8899  139.9569  161.8466 C.ar    1  UNL1       -0.0061
      2 C         144.2044  140.1386  162.5459 C.ar    1  UNL1       -0.0028
      3 C         144.3247  139.8301  164.0089 C.ar    1  UNL1        0.0030
      4 C         143.1303  139.3400  164.7727 C.ar    1  UNL1        0.0420
      5 C         141.8157  139.1583  164.0733 C.ar    1  UNL1        0.0030
      6 C         141.6956  139.4668  162.6104 C.ar    1  UNL1       -0.0028
      7 C         143.2505  139.0315  166.2357 C.2     1  UNL1        0.2297
      8 O         144.1288  137.9057  166.6951 O.2     1  UNL1       -0.2833
      9 C         142.4923  139.8489  167.2392 C.ar    1  UNL1        0.1873
     10 N         141.8724  139.3370  168.5056 N.ar    1  UNL1       -0.2235
     11 C         141.2179  140.4934  169.2017 C.ar    1  UNL1        0.0991
     12 C         140.4537  140.5879  170.4889 C.ar    1  UNL1        0.0206
     13 C         139.9048  141.9090  170.9399 C.ar    1  UNL1        0.0016
     14 C         140.1202  143.1355  170.1037 C.ar    1  UNL1        0.0016
     15 C         140.8844  143.0410  168.8165 C.ar    1  UNL1        0.0191
     16 C         141.4333  141.7199  168.3655 C.ar    1  UNL1        0.0830
     17 N         142.2209  141.3216  167.1526 N.ar    1  UNL1       -0.2877
     18 C         142.6600  142.2355  166.0472 C.ar    1  UNL1        0.0655
     19 C         141.7053  142.5953  164.9477 C.ar    1  UNL1        0.0184
     20 C         142.1444  143.5093  163.8423 C.ar    1  UNL1        0.0129
     21 C         143.5383  144.0634  163.8365 C.ar    1  UNL1        0.0578
     22 CL        143.9774  144.9774  162.7311 Cl      1  UNL1       -0.0822
     23 C         144.4931  143.7036  164.9360 C.ar    1  UNL1        0.0129
     24 C         144.0540  142.7897  166.0414 C.ar    1  UNL1        0.0184
     25 C         142.7697  140.2654  160.3836 C.3     1  UNL1        0.0991
     26 C         142.6756  136.9171  157.3786 C.3     1  UNL1        0.0251
     27 C         142.9700  136.6233  158.8198 C.3     1  UNL1        0.0217
     28 C         143.0014  137.7394  159.8215 C.3     1  UNL1        0.0727
     29 N         142.7384  139.1493  159.3819 N.3     1  UNL1       -0.2689
     30 C         142.4440  139.4430  157.9407 C.3     1  UNL1        0.0727
     31 C         142.4126  138.3269  156.9391 C.3     1  UNL1        0.0217
     32 C         142.6716  133.2594  155.8386 C.ar    1  UNL1        0.0500
     33 C         142.5815  133.5688  154.3736 C.ar    1  UNL1        0.0147
     34 C         142.5228  134.9942  153.9103 C.ar    1  UNL1        0.0009
     35 C         142.5542  136.1103  154.9119 C.ar    1  UNL1       -0.0042
     36 C         142.6443  135.8010  156.3769 C.ar    1  UNL1       -0.0212
     37 C         142.7029  134.3755  156.8403 C.ar    1  UNL1        0.0104
     38 C         144.1151  129.7271  156.9291 C.3     1  UNL1        0.0949
     39 C         144.0565  131.1526  156.4658 C.2     1  UNL1        0.2266
     40 O         145.3240  131.8966  156.1663 O.2     1  UNL1       -0.2748
     41 N         142.7302  131.8340  156.3019 N.am    1  UNL1       -0.2839
     42 H         141.8983  131.3456  156.4984 H       1  UNL1        0.1549
@<TRIPOS>BOND
     1    38    39    1
     2    39    40    2
     3    39    41   am
     4    41    32    1
     5    32    33   ar
     6    33    34   ar
     7    34    35   ar
     8    35    36   ar
     9    36    26    1
    10    26    27    1
    11    27    28    1
    12    28    29    1
    13    29    25    1
    14    25     1    1
    15     1     2   ar
    16     2     3   ar
    17     3     4   ar
    18     4     7    1
    19     7     8    2
    20     7     9    1
    21     9    10   ar
    22    10    11   ar
    23    11    12   ar
    24    12    13   ar
    25    13    14   ar
    26    14    15   ar
    27    15    16   ar
    28    16    17   ar
    29    17    18    1
    30    18    19   ar
    31    19    20   ar
    32    20    21   ar
    33    21    22    1
    34    21    23   ar
    35    23    24   ar
    36     4     5   ar
    37     5     6   ar
    38    29    30    1
    39    30    31    1
    40    36    37   ar
    41    37    32   ar
    42    31    26    1
    43     6     1   ar
    44    17     9   ar
    45    24    18   ar
    46    16    11   ar
    47    41    42    1
@<TRIPOS>MOLECULE
*****
 42 47 0 0 0
SMALL
GASTEIGER

@<TRIPOS>ATOM
      1 C         140.1145  138.4013  162.3808 C.ar    1  UNL1       -0.0061
      2 C         140.7971  137.7751  163.5606 C.ar    1  UNL1       -0.0028
      3 C         140.2733  138.0164  164.9453 C.ar    1  UNL1        0.0030
      4 C         139.0668  138.8839  165.1502 C.ar    1  UNL1        0.0420
      5 C         138.3842  139.5101  163.9704 C.ar    1  UNL1        0.0030
      6 C         138.9080  139.2688  162.5857 C.ar    1  UNL1       -0.0028
      7 C         138.5430  139.1252  166.5349 C.2     1  UNL1        0.2297
      8 O         137.2224  138.5467  166.9485 O.2     1  UNL1       -0.2833
      9 C         139.3399  139.9450  167.5060 C.ar    1  UNL1        0.1873
     10 N         139.4953  139.6702  168.9724 N.ar    1  UNL1       -0.2235
     11 C         140.3727  140.7389  169.5538 C.ar    1  UNL1        0.0991
     12 C         140.8694  140.9812  170.9483 C.ar    1  UNL1        0.0206
     13 C         141.7528  142.1588  171.2357 C.ar    1  UNL1        0.0016
     14 C         142.1397  143.0942  170.1286 C.ar    1  UNL1        0.0016
     15 C         141.6430  142.8519  168.7342 C.ar    1  UNL1        0.0191
     16 C         140.7595  141.6742  168.4468 C.ar    1  UNL1        0.0830
     17 N         140.1212  141.1836  167.1811 N.ar    1  UNL1       -0.2877
     18 C         140.2429  141.8198  165.8282 C.ar    1  UNL1        0.0655
     19 C         141.4523  141.5557  164.9812 C.ar    1  UNL1        0.0184
     20 C         141.5739  142.1920  163.6283 C.ar    1  UNL1        0.0129
     21 C         140.4861  143.0923  163.1223 C.ar    1  UNL1        0.0578
     22 CL        140.6078  143.7285  161.7694 Cl      1  UNL1       -0.0822
     23 C         139.2766  143.3564  163.9693 C.ar    1  UNL1        0.0129
     24 C         139.1549  142.7201  165.3222 C.ar    1  UNL1        0.0184
     25 C         140.6383  138.1600  160.9961 C.3     1  UNL1        0.0991
     26 C         141.3189  141.6291  158.2118 C.3     1  UNL1        0.0251
     27 C         142.1093  141.5207  159.4821 C.3     1  UNL1        0.0217
     28 C         141.8825  140.3643  160.4102 C.3     1  UNL1        0.0727
     29 N         140.8652  139.3164  160.0680 N.3     1  UNL1       -0.2689
     30 C         140.0748  139.4249  158.7977 C.3     1  UNL1        0.0727
     31 C         140.3017  140.5812  157.8697 C.3     1  UNL1        0.0217
     32 C         141.1836  145.2846  156.6724 C.ar    1  UNL1        0.0500
     33 C         141.9995  145.0982  155.4276 C.ar    1  UNL1        0.0147
     34 C         142.5885  143.7556  155.1108 C.ar    1  UNL1        0.0009
     35 C         142.3617  142.5992  156.0389 C.ar    1  UNL1       -0.0042
     36 C         141.5458  142.7855  157.2837 C.ar    1  UNL1       -0.0212
     37 C         140.9568  144.1282  157.6005 C.ar    1  UNL1        0.0104
     38 C         138.7074  148.3859  156.6803 C.3     1  UNL1        0.0949
     39 C         139.2963  147.0431  156.3635 C.2     1  UNL1        0.2266
     40 O         138.5870  146.1165  155.4212 O.2     1  UNL1       -0.2748
     41 N         140.5946  146.6272  156.9892 N.am    1  UNL1       -0.2839
     42 H         141.0602  147.2354  157.6077 H       1  UNL1        0.1549
@<TRIPOS>BOND
     1    38    39    1
     2    39    40    2
     3    39    41   am
     4    41    32    1
     5    32    33   ar
     6    33    34   ar
     7    34    35   ar
     8    35    36   ar
     9    36    26    1
    10    26    27    1
    11    27    28    1
    12    28    29    1
    13    29    25    1
    14    25     1    1
    15     1     2   ar
    16     2     3   ar
    17     3     4   ar
    18     4     7    1
    19     7     8    2
    20     7     9    1
    21     9    10   ar
    22    10    11   ar
    23    11    12   ar
    24    12    13   ar
    25    13    14   ar
    26    14    15   ar
    27    15    16   ar
    28    16    17   ar
    29    17    18    1
    30    18    19   ar
    31    19    20   ar
    32    20    21   ar
    33    21    22    1
    34    21    23   ar
    35    23    24   ar
    36     4     5   ar
    37     5     6   ar
    38    29    30    1
    39    30    31    1
    40    36    37   ar
    41    37    32   ar
    42    31    26    1
    43     6     1   ar
    44    17     9   ar
    45    24    18   ar
    46    16    11   ar
    47    41    42    1
@<TRIPOS>MOLECULE
*****
 42 47 0 0 0
SMALL
GASTEIGER

@<TRIPOS>ATOM
      1 C         141.5625  143.7186  161.4797 C.ar    1  UNL1       -0.0061
      2 C         141.2692  144.0856  162.9042 C.ar    1  UNL1       -0.0028
      3 C         141.7902  143.2310  164.0214 C.ar    1  UNL1        0.0030
      4 C         142.6046  142.0093  163.7141 C.ar    1  UNL1        0.0420
      5 C         142.8978  141.6423  162.2895 C.ar    1  UNL1        0.0030
      6 C         142.3768  142.4969  161.1723 C.ar    1  UNL1       -0.0028
      7 C         143.1256  141.1547  164.8312 C.2     1  UNL1        0.2297
      8 O         144.4306  140.4316  164.6763 O.2     1  UNL1       -0.2833
      9 C         142.3416  141.0232  166.1033 C.ar    1  UNL1        0.1873
     10 N         142.7782  141.4899  167.4603 N.ar    1  UNL1       -0.2235
     11 C         141.6899  141.1571  168.4374 C.ar    1  UNL1        0.0991
     12 C         141.5656  141.3795  169.9156 C.ar    1  UNL1        0.0206
     13 C         140.3321  140.9293  170.6406 C.ar    1  UNL1        0.0016
     14 C         139.2228  140.2569  169.8874 C.ar    1  UNL1        0.0016
     15 C         139.3470  140.0345  168.4093 C.ar    1  UNL1        0.0191
     16 C         140.5806  140.4846  167.6842 C.ar    1  UNL1        0.0830
     17 N         140.9834  140.4019  166.2417 N.ar    1  UNL1       -0.2877
     18 C         140.1706  139.8029  165.1323 C.ar    1  UNL1        0.0655
     19 C         139.1829  140.6489  164.3851 C.ar    1  UNL1        0.0184
     20 C         138.3701  140.0500  163.2757 C.ar    1  UNL1        0.0129
     21 C         138.5451  138.6049  162.9136 C.ar    1  UNL1        0.0578
     22 CL        137.7324  138.0060  161.8042 Cl      1  UNL1       -0.0822
     23 C         139.5329  137.7588  163.6608 C.ar    1  UNL1        0.0129
     24 C         140.3457  138.3578  164.7702 C.ar    1  UNL1        0.0184
     25 C         141.0414  144.5732  160.3624 C.3     1  UNL1        0.0991
     26 C         138.1787  142.8424  157.3527 C.3     1  UNL1        0.0251
     27 C         139.1515  143.9058  156.9371 C.3     1  UNL1        0.0217
     28 C         140.1058  144.4828  157.9403 C.3     1  UNL1        0.0727
     29 N         140.0872  143.9963  159.3592 N.3     1  UNL1       -0.2689
     30 C         139.1143  142.9329  159.7747 C.3     1  UNL1        0.0727
     31 C         138.1601  142.3559  158.7714 C.3     1  UNL1        0.0217
     32 C         135.4044  140.5217  155.7193 C.ar    1  UNL1        0.0500
     33 C         135.3159  141.1115  154.3429 C.ar    1  UNL1        0.0147
     34 C         136.1816  142.2783  153.9699 C.ar    1  UNL1        0.0009
     35 C         137.1358  142.8552  154.9731 C.ar    1  UNL1       -0.0042
     36 C         137.2244  142.2654  156.3494 C.ar    1  UNL1       -0.0212
     37 C         136.3587  141.0986  156.7225 C.ar    1  UNL1        0.0104
     38 C         132.2370  138.4086  156.8384 C.3     1  UNL1        0.0949
     39 C         133.1027  139.5755  156.4653 C.2     1  UNL1        0.2266
     40 O         132.5323  140.9628  156.4653 O.2     1  UNL1       -0.2748
     41 N         134.5387  139.3549  156.0923 N.am    1  UNL1       -0.2839
     42 H         134.9130  138.4444  156.0924 H       1  UNL1        0.1549
@<TRIPOS>BOND
     1    38    39    1
     2    39    40    2
     3    39    41   am
     4    41    32    1
     5    32    33   ar
     6    33    34   ar
     7    34    35   ar
     8    35    36   ar
     9    36    26    1
    10    26    27    1
    11    27    28    1
    12    28    29    1
    13    29    25    1
    14    25     1    1
    15     1     2   ar
    16     2     3   ar
    17     3     4   ar
    18     4     7    1
    19     7     8    2
    20     7     9    1
    21     9    10   ar
    22    10    11   ar
    23    11    12   ar
    24    12    13   ar
    25    13    14   ar
    26    14    15   ar
    27    15    16   ar
    28    16    17   ar
    29    17    18    1
    30    18    19   ar
    31    19    20   ar
    32    20    21   ar
    33    21    22    1
    34    21    23   ar
    35    23    24   ar
    36     4     5   ar
    37     5     6   ar
    38    29    30    1
    39    30    31    1
    40    36    37   ar
    41    37    32   ar
    42    31    26    1
    43     6     1   ar
    44    17     9   ar
    45    24    18   ar
    46    16    11   ar
    47    41    42    1
