@<TRIPOS>MOLECULE
*****
 26 29 0 0 0
SMALL
GASTEIGER

@<TRIPOS>ATOM
      1 C         138.4536  139.0445  166.0279 C.2     1  UNL1        0.2686
      2 O         137.4064  138.3401  166.8387 O.2     1  UNL1       -0.2682
      3 N         139.5183  139.8482  166.7138 N.am    1  UNL1       -0.2707
      4 C         137.6783  140.1755  160.9288 C.3     1  UNL1        0.1321
      5 N         138.0796  139.4651  162.1875 N.ar    1  UNL1       -0.3057
      6 C         138.7383  138.1199  162.2690 C.ar    1  UNL1        0.1787
      7 N         138.9585  137.7986  163.7175 N.ar    1  UNL1       -0.2192
      8 C         138.4360  138.9452  164.5313 C.ar    1  UNL1        0.1535
      9 C         137.8928  139.9752  163.5858 C.ar    1  UNL1        0.1012
     10 C         139.5359  139.9475  168.2104 C.3     1  UNL1        0.1205
     11 C         140.4811  140.8949  168.8881 C.ar    1  UNL1       -0.0013
     12 C         141.8682  140.4462  169.2408 C.ar    1  UNL1       -0.0003
     13 C         142.8133  141.3935  169.9185 C.ar    1  UNL1        0.0302
     14 C         142.3712  142.7895  170.2436 C.ar    1  UNL1        0.1506
     15 F         143.3163  143.7369  170.9213 F       1  UNL1       -0.2033
     16 C         140.9840  143.2382  169.8910 C.ar    1  UNL1        0.0848
     17 CL        140.5419  144.6342  170.2161 Cl      1  UNL1       -0.0799
     18 C         140.0389  142.2909  169.2133 C.ar    1  UNL1        0.0111
     19 C         140.5655  140.5526  165.9030 C.3     1  UNL1        0.0941
     20 C         140.3165  141.9450  165.4037 C.3     1  UNL1        0.0226
     21 C         140.6511  143.0688  164.4682 C.3     1  UNL1        0.0188
     22 C         140.7544  144.3423  163.6824 C.3     1  UNL1        0.0686
     23 N         139.7179  145.2935  164.2029 N.3     1  UNL1       -0.2975
     24 C         138.9740  144.6078  165.3105 C.3     1  UNL1        0.0686
     25 C         139.5508  143.2329  165.4744 C.3     1  UNL1        0.0188
     26 H         139.0713  145.5441  163.4549 H       1  UNL1        0.1232
@<TRIPOS>BOND
     1     4     5    1
     2     5     6   ar
     3     6     7   ar
     4     7     8   ar
     5     8     1    1
     6     1     2    2
     7     1     3   am
     8     3    10    1
     9    10    11    1
    10    11    12   ar
    11    12    13   ar
    12    13    14   ar
    13    14    15    1
    14    14    16   ar
    15    16    17    1
    16    16    18   ar
    17     3    19    1
    18    20    19    1
    19    20    21    1
    20    21    22    1
    21    22    23    1
    22    23    24    1
    23    25    24    1
    24     8     9   ar
    25     9     5   ar
    26    18    11   ar
    27    25    20    1
    28    25    21    1
    29    23    26    1
@<TRIPOS>MOLECULE
*****
 26 29 0 0 0
SMALL
GASTEIGER

@<TRIPOS>ATOM
      1 C         139.5993  140.0773  168.2836 C.2     1  UNL1        0.2686
      2 O         138.4526  139.4382  169.0091 O.2     1  UNL1       -0.2682
      3 N         139.5537  140.2258  166.7916 N.am    1  UNL1       -0.2707
      4 C         143.0250  143.2475  170.7525 C.3     1  UNL1        0.1321
      5 N         142.3664  142.0253  170.1848 N.ar    1  UNL1       -0.3057
      6 C         142.8870  140.6213  170.2737 C.ar    1  UNL1        0.1787
      7 N         141.9139  139.7207  169.5724 N.ar    1  UNL1       -0.2192
      8 C         140.7918  140.5681  169.0500 C.ar    1  UNL1        0.1535
      9 C         141.0714  141.9924  169.4284 C.ar    1  UNL1        0.1012
     10 C         138.3613  139.7350  166.0252 C.3     1  UNL1        0.1205
     11 C         138.5206  139.2675  164.6088 C.ar    1  UNL1       -0.0013
     12 C         139.1756  137.9486  164.3235 C.ar    1  UNL1       -0.0003
     13 C         139.3348  137.4812  162.9071 C.ar    1  UNL1        0.0302
     14 C         138.8391  138.3327  161.7761 C.ar    1  UNL1        0.1506
     15 F         138.9984  137.8652  160.3597 F       1  UNL1       -0.2033
     16 C         138.1841  139.6516  162.0614 C.ar    1  UNL1        0.0848
     17 CL        137.6884  140.5031  160.9304 Cl      1  UNL1       -0.0799
     18 C         138.0249  140.1190  163.4778 C.ar    1  UNL1        0.0111
     19 C         140.7005  140.8649  166.0661 C.3     1  UNL1        0.0941
     20 C         140.5342  142.2213  165.4476 C.3     1  UNL1        0.0226
     21 C         139.6714  143.4055  165.1260 C.3     1  UNL1        0.0188
     22 C         139.0691  144.7013  164.6701 C.3     1  UNL1        0.0686
     23 N         140.1343  145.4833  163.9602 N.3     1  UNL1       -0.2975
     24 C         141.3950  144.6706  163.9773 C.3     1  UNL1        0.0686
     25 C         141.1089  143.3865  164.6979 C.3     1  UNL1        0.0188
     26 H         140.2882  146.3712  164.4379 H       1  UNL1        0.1232
@<TRIPOS>BOND
     1     4     5    1
     2     5     6   ar
     3     6     7   ar
     4     7     8   ar
     5     8     1    1
     6     1     2    2
     7     1     3   am
     8     3    10    1
     9    10    11    1
    10    11    12   ar
    11    12    13   ar
    12    13    14   ar
    13    14    15    1
    14    14    16   ar
    15    16    17    1
    16    16    18   ar
    17     3    19    1
    18    20    19    1
    19    20    21    1
    20    21    22    1
    21    22    23    1
    22    23    24    1
    23    25    24    1
    24     8     9   ar
    25     9     5   ar
    26    18    11   ar
    27    25    20    1
    28    25    21    1
    29    23    26    1
@<TRIPOS>MOLECULE
*****
 26 29 0 0 0
SMALL
GASTEIGER

@<TRIPOS>ATOM
      1 C         143.0435  138.9352  165.4844 C.2     1  UNL1        0.2686
      2 O         143.8993  138.0288  166.3185 O.2     1  UNL1       -0.2682
      3 N         142.5850  140.2521  166.0371 N.am    1  UNL1       -0.2707
      4 C         143.1325  138.1264  160.2672 C.3     1  UNL1        0.1321
      5 N         142.6871  138.1530  161.6993 N.ar    1  UNL1       -0.3057
      6 C         141.3825  137.6336  162.2267 C.ar    1  UNL1        0.1787
      7 N         141.3572  137.8633  163.7088 N.ar    1  UNL1       -0.2192
      8 C         142.6461  138.5248  164.0973 C.ar    1  UNL1        0.1535
      9 C         143.4681  138.7039  162.8555 C.ar    1  UNL1        0.1012
     10 C         142.9822  140.6626  167.4241 C.3     1  UNL1        0.1205
     11 C         141.9712  141.2858  168.3404 C.ar    1  UNL1       -0.0013
     12 C         142.1759  142.6841  168.8430 C.ar    1  UNL1       -0.0003
     13 C         141.1649  143.3072  169.7593 C.ar    1  UNL1        0.0302
     14 C         139.9493  142.5320  170.1730 C.ar    1  UNL1        0.1506
     15 F         138.9383  143.1552  171.0893 F       1  UNL1       -0.2033
     16 C         139.7446  141.1336  169.6703 C.ar    1  UNL1        0.0848
     17 CL        138.5289  140.3584  170.0840 Cl      1  UNL1       -0.0799
     18 C         140.7555  140.5105  168.7541 C.ar    1  UNL1        0.0111
     19 C         141.7291  141.1586  165.2029 C.3     1  UNL1        0.0941
     20 C         142.3428  142.3346  164.5025 C.3     1  UNL1        0.0226
     21 C         142.3772  143.8082  164.2248 C.3     1  UNL1        0.0188
     22 C         142.6537  145.2080  163.7619 C.3     1  UNL1        0.0686
     23 N         143.8188  145.1626  162.8183 N.3     1  UNL1       -0.2975
     24 C         144.2624  143.7346  162.6979 C.3     1  UNL1        0.0686
     25 C         143.3714  142.8977  163.5672 C.3     1  UNL1        0.0188
     26 H         144.5820  145.7326  163.1829 H       1  UNL1        0.1232
@<TRIPOS>BOND
     1     4     5    1
     2     5     6   ar
     3     6     7   ar
     4     7     8   ar
     5     8     1    1
     6     1     2    2
     7     1     3   am
     8     3    10    1
     9    10    11    1
    10    11    12   ar
    11    12    13   ar
    12    13    14   ar
    13    14    15    1
    14    14    16   ar
    15    16    17    1
    16    16    18   ar
    17     3    19    1
    18    20    19    1
    19    20    21    1
    20    21    22    1
    21    22    23    1
    22    23    24    1
    23    25    24    1
    24     8     9   ar
    25     9     5   ar
    26    18    11   ar
    27    25    20    1
    28    25    21    1
    29    23    26    1
@<TRIPOS>MOLECULE
*****
 26 29 0 0 0
SMALL
GASTEIGER

@<TRIPOS>ATOM
      1 C         138.7198  139.2965  165.7334 C.2     1  UNL1        0.2686
      2 O         137.8928  138.3065  166.4989 O.2     1  UNL1       -0.2682
      3 N         139.7116  140.1612  166.4535 N.am    1  UNL1       -0.2707
      4 C         139.1493  138.4297  160.5425 C.3     1  UNL1        0.1321
      5 N         138.7526  139.0232  161.8616 N.ar    1  UNL1       -0.3057
      6 C         137.8509  140.2053  162.0612 C.ar    1  UNL1        0.1787
      7 N         137.7289  140.4515  163.5358 N.ar    1  UNL1       -0.2192
      8 C         138.5551  139.4217  164.2476 C.ar    1  UNL1        0.1535
      9 C         139.1878  138.5389  163.2130 C.ar    1  UNL1        0.1012
     10 C         139.8763  140.0361  167.9391 C.3     1  UNL1        0.1205
     11 C         140.7577  140.9978  168.6797 C.ar    1  UNL1       -0.0013
     12 C         142.1769  140.6263  168.9923 C.ar    1  UNL1       -0.0003
     13 C         143.0581  141.5880  169.7329 C.ar    1  UNL1        0.0302
     14 C         142.5202  142.9212  170.1608 C.ar    1  UNL1        0.1506
     15 F         143.4016  143.8829  170.9013 F       1  UNL1       -0.2033
     16 C         141.1010  143.2928  169.8481 C.ar    1  UNL1        0.0848
     17 CL        140.5631  144.6260  170.2760 Cl      1  UNL1       -0.0799
     18 C         140.2198  142.3311  169.1076 C.ar    1  UNL1        0.0111
     19 C         140.5386  141.1512  165.6879 C.3     1  UNL1        0.0941
     20 C         141.8591  140.7370  165.1093 C.3     1  UNL1        0.0226
     21 C         143.2948  141.0419  164.8001 C.3     1  UNL1        0.0188
     22 C         144.7313  141.0581  164.3684 C.3     1  UNL1        0.0686
     23 N         145.0347  139.7410  163.7179 N.3     1  UNL1       -0.2975
     24 C         143.7857  138.9107  163.7476 C.3     1  UNL1        0.0686
     25 C         142.7104  139.7148  164.4164 C.3     1  UNL1        0.0188
     26 H         145.7785  139.2657  164.2290 H       1  UNL1        0.1232
@<TRIPOS>BOND
     1     4     5    1
     2     5     6   ar
     3     6     7   ar
     4     7     8   ar
     5     8     1    1
     6     1     2    2
     7     1     3   am
     8     3    10    1
     9    10    11    1
    10    11    12   ar
    11    12    13   ar
    12    13    14   ar
    13    14    15    1
    14    14    16   ar
    15    16    17    1
    16    16    18   ar
    17     3    19    1
    18    20    19    1
    19    20    21    1
    20    21    22    1
    21    22    23    1
    22    23    24    1
    23    25    24    1
    24     8     9   ar
    25     9     5   ar
    26    18    11   ar
    27    25    20    1
    28    25    21    1
    29    23    26    1
@<TRIPOS>MOLECULE
*****
 26 29 0 0 0
SMALL
GASTEIGER

@<TRIPOS>ATOM
      1 C         140.8609  138.8424  164.7486 C.2     1  UNL1        0.2686
      2 O         141.9755  138.5528  165.7097 O.2     1  UNL1       -0.2682
      3 N         139.4969  139.1922  165.2654 N.am    1  UNL1       -0.2707
      4 C         142.1328  140.2128  159.8105 C.3     1  UNL1        0.1321
      5 N         141.6950  139.4121  161.0009 N.ar    1  UNL1       -0.3057
      6 C         141.2932  137.9669  160.9920 C.ar    1  UNL1        0.1787
      7 N         140.9319  137.5776  162.3948 N.ar    1  UNL1       -0.2192
      8 C         141.1103  138.7821  163.2707 C.ar    1  UNL1        0.1535
      9 C         141.5819  139.9160  162.4093 C.ar    1  UNL1        0.1012
     10 C         139.2475  139.2525  166.7432 C.3     1  UNL1        0.1205
     11 C         139.7709  140.4067  167.5458 C.ar    1  UNL1       -0.0013
     12 C         140.0579  141.7175  166.8753 C.ar    1  UNL1       -0.0003
     13 C         140.5812  142.8716  167.6779 C.ar    1  UNL1        0.0302
     14 C         140.8176  142.7149  169.1508 C.ar    1  UNL1        0.1506
     15 F         141.3410  143.8691  169.9533 F       1  UNL1       -0.2033
     16 C         140.5306  141.4042  169.8212 C.ar    1  UNL1        0.0848
     17 CL        140.7670  141.2475  171.2942 Cl      1  UNL1       -0.0799
     18 C         140.0072  140.2501  169.0187 C.ar    1  UNL1        0.0111
     19 C         138.3822  139.4818  164.3042 C.3     1  UNL1        0.0941
     20 C         138.1776  140.8765  163.7913 C.3     1  UNL1        0.0226
     21 C         138.0918  141.8392  162.6442 C.3     1  UNL1        0.0188
     22 C         137.9536  143.0141  161.7220 C.3     1  UNL1        0.0686
     23 N         137.6854  144.2305  162.5579 N.3     1  UNL1       -0.2975
     24 C         137.6578  143.8072  163.9967 C.3     1  UNL1        0.0686
     25 C         137.9089  142.3293  164.0500 C.3     1  UNL1        0.0188
     26 H         136.7863  144.6368  162.2992 H       1  UNL1        0.1232
@<TRIPOS>BOND
     1     4     5    1
     2     5     6   ar
     3     6     7   ar
     4     7     8   ar
     5     8     1    1
     6     1     2    2
     7     1     3   am
     8     3    10    1
     9    10    11    1
    10    11    12   ar
    11    12    13   ar
    12    13    14   ar
    13    14    15    1
    14    14    16   ar
    15    16    17    1
    16    16    18   ar
    17     3    19    1
    18    20    19    1
    19    20    21    1
    20    21    22    1
    21    22    23    1
    22    23    24    1
    23    25    24    1
    24     8     9   ar
    25     9     5   ar
    26    18    11   ar
    27    25    20    1
    28    25    21    1
    29    23    26    1
@<TRIPOS>MOLECULE
*****
 26 29 0 0 0
SMALL
GASTEIGER

@<TRIPOS>ATOM
      1 C         142.8498  142.9540  164.4121 C.2     1  UNL1        0.2686
      2 O         144.0183  143.5334  165.1530 O.2     1  UNL1       -0.2682
      3 N         142.3173  141.6035  164.7896 N.am    1  UNL1       -0.2707
      4 C         139.7593  146.3008  161.7421 C.3     1  UNL1        0.1321
      5 N         140.7932  145.2636  162.0665 N.ar    1  UNL1       -0.3057
      6 C         141.6767  144.5604  161.0791 C.ar    1  UNL1        0.1787
      7 N         142.5546  143.6097  161.8376 N.ar    1  UNL1       -0.2192
      8 C         142.2137  143.7253  163.2937 C.ar    1  UNL1        0.1535
      9 C         141.1251  144.7474  163.4353 C.ar    1  UNL1        0.1012
     10 C         142.9533  140.8323  165.9079 C.3     1  UNL1        0.1205
     11 C         142.3962  140.9289  167.2973 C.ar    1  UNL1       -0.0013
     12 C         142.4740  139.7490  168.2202 C.ar    1  UNL1       -0.0003
     13 C         141.9169  139.8456  169.6096 C.ar    1  UNL1        0.0302
     14 C         141.2820  141.1221  170.0760 C.ar    1  UNL1        0.1506
     15 F         140.7249  141.2187  171.4654 F       1  UNL1       -0.2033
     16 C         141.2042  142.3019  169.1530 C.ar    1  UNL1        0.0848
     17 CL        140.5692  143.5784  169.6194 Cl      1  UNL1       -0.0799
     18 C         141.7613  142.2053  167.7637 C.ar    1  UNL1        0.0111
     19 C         141.1488  141.0242  164.0486 C.3     1  UNL1        0.0941
     20 C         140.2223  140.0677  164.7392 C.3     1  UNL1        0.0226
     21 C         139.6064  138.7042  164.8460 C.3     1  UNL1        0.0188
     22 C         138.8405  137.4638  165.1993 C.3     1  UNL1        0.0686
     23 N         137.9944  137.7675  166.4000 N.3     1  UNL1       -0.2975
     24 C         138.2373  139.1958  166.7889 C.3     1  UNL1        0.0686
     25 C         139.2336  139.7746  165.8285 C.3     1  UNL1        0.0188
     26 H         138.2521  137.1504  167.1701 H       1  UNL1        0.1232
@<TRIPOS>BOND
     1     4     5    1
     2     5     6   ar
     3     6     7   ar
     4     7     8   ar
     5     8     1    1
     6     1     2    2
     7     1     3   am
     8     3    10    1
     9    10    11    1
    10    11    12   ar
    11    12    13   ar
    12    13    14   ar
    13    14    15    1
    14    14    16   ar
    15    16    17    1
    16    16    18   ar
    17     3    19    1
    18    20    19    1
    19    20    21    1
    20    21    22    1
    21    22    23    1
    22    23    24    1
    23    25    24    1
    24     8     9   ar
    25     9     5   ar
    26    18    11   ar
    27    25    20    1
    28    25    21    1
    29    23    26    1
@<TRIPOS>MOLECULE
*****
 26 29 0 0 0
SMALL
GASTEIGER

@<TRIPOS>ATOM
      1 C         143.1879  142.7951  164.0468 C.2     1  UNL1        0.2686
      2 O         144.0049  143.6848  164.9360 O.2     1  UNL1       -0.2682
      3 N         142.6799  141.4814  164.5628 N.am    1  UNL1       -0.2707
      4 C         140.9754  145.1974  159.8977 C.3     1  UNL1        0.1321
      5 N         141.8618  144.3232  160.7344 N.ar    1  UNL1       -0.3057
      6 C         142.9445  143.4193  160.2236 C.ar    1  UNL1        0.1787
      7 N         143.5730  142.7369  161.4022 N.ar    1  UNL1       -0.2192
      8 C         142.8788  143.2189  162.6414 C.ar    1  UNL1        0.1535
      9 C         141.8212  144.1994  162.2288 C.ar    1  UNL1        0.1012
     10 C         142.9889  141.0575  165.9680 C.3     1  UNL1        0.1205
     11 C         141.9278  141.1353  167.0254 C.ar    1  UNL1       -0.0013
     12 C         141.0392  139.9550  167.2845 C.ar    1  UNL1       -0.0003
     13 C         139.9782  140.0328  168.3419 C.ar    1  UNL1        0.0302
     14 C         139.8057  141.2910  169.1402 C.ar    1  UNL1        0.1506
     15 F         138.7446  141.3688  170.1976 F       1  UNL1       -0.2033
     16 C         140.6943  142.4713  168.8811 C.ar    1  UNL1        0.0848
     17 CL        140.5218  143.7295  169.6793 Cl      1  UNL1       -0.0799
     18 C         141.7553  142.3935  167.8237 C.ar    1  UNL1        0.0111
     19 C         141.8628  140.5916  163.6734 C.3     1  UNL1        0.0941
     20 C         140.3879  140.8243  163.5307 C.3     1  UNL1        0.0226
     21 C         139.1552  141.6018  163.8855 C.3     1  UNL1        0.0188
     22 C         137.7799  142.1790  164.0454 C.3     1  UNL1        0.0686
     23 N         136.8408  141.3839  163.1875 N.3     1  UNL1       -0.2975
     24 C         137.6357  140.3152  162.4974 C.3     1  UNL1        0.0686
     25 C         139.0660  140.4499  162.9288 C.3     1  UNL1        0.0188
     26 H         136.4050  141.9928  162.4950 H       1  UNL1        0.1232
@<TRIPOS>BOND
     1     4     5    1
     2     5     6   ar
     3     6     7   ar
     4     7     8   ar
     5     8     1    1
     6     1     2    2
     7     1     3   am
     8     3    10    1
     9    10    11    1
    10    11    12   ar
    11    12    13   ar
    12    13    14   ar
    13    14    15    1
    14    14    16   ar
    15    16    17    1
    16    16    18   ar
    17     3    19    1
    18    20    19    1
    19    20    21    1
    20    21    22    1
    21    22    23    1
    22    23    24    1
    23    25    24    1
    24     8     9   ar
    25     9     5   ar
    26    18    11   ar
    27    25    20    1
    28    25    21    1
    29    23    26    1
@<TRIPOS>MOLECULE
*****
 26 29 0 0 0
SMALL
GASTEIGER

@<TRIPOS>ATOM
      1 C         140.0844  138.5520  164.5224 C.2     1  UNL1        0.2686
      2 O         141.1418  137.6538  165.0925 O.2     1  UNL1       -0.2682
      3 N         139.1845  139.3267  165.4389 N.am    1  UNL1       -0.2707
      4 C         140.6558  140.1718  159.5293 C.3     1  UNL1        0.1321
      5 N         140.1895  139.4201  160.7407 N.ar    1  UNL1       -0.3057
      6 C         139.1793  138.3113  160.7556 C.ar    1  UNL1        0.1787
      7 N         139.0170  137.8512  162.1741 N.ar    1  UNL1       -0.2192
      8 C         139.9268  138.6756  163.0358 C.ar    1  UNL1        0.1535
      9 C         140.6515  139.6452  162.1500 C.ar    1  UNL1        0.1012
     10 C         139.3420  139.2032  166.9255 C.3     1  UNL1        0.1205
     11 C         140.0623  140.2707  167.6947 C.ar    1  UNL1       -0.0013
     12 C         139.5112  140.7533  169.0036 C.ar    1  UNL1       -0.0003
     13 C         140.2315  141.8208  169.7727 C.ar    1  UNL1        0.0302
     14 C         141.5029  142.4057  169.2329 C.ar    1  UNL1        0.1506
     15 F         142.2233  143.4733  170.0020 F       1  UNL1       -0.2033
     16 C         142.0541  141.9231  167.9239 C.ar    1  UNL1        0.0848
     17 CL        143.3255  142.5080  167.3841 Cl      1  UNL1       -0.0799
     18 C         141.3337  140.8556  167.1548 C.ar    1  UNL1        0.0111
     19 C         138.1270  140.2249  164.8688 C.3     1  UNL1        0.0941
     20 C         138.4259  141.6744  164.6248 C.3     1  UNL1        0.0226
     21 C         139.2947  142.8769  164.8467 C.3     1  UNL1        0.0188
     22 C         139.9559  144.2228  164.8824 C.3     1  UNL1        0.0686
     23 N         139.1448  145.1603  164.0379 N.3     1  UNL1       -0.2975
     24 C         137.9822  144.3938  163.4802 C.3     1  UNL1        0.0686
     25 C         138.0749  142.9826  163.9802 C.3     1  UNL1        0.0188
     26 H         139.7176  145.5233  163.2759 H       1  UNL1        0.1232
@<TRIPOS>BOND
     1     4     5    1
     2     5     6   ar
     3     6     7   ar
     4     7     8   ar
     5     8     1    1
     6     1     2    2
     7     1     3   am
     8     3    10    1
     9    10    11    1
    10    11    12   ar
    11    12    13   ar
    12    13    14   ar
    13    14    15    1
    14    14    16   ar
    15    16    17    1
    16    16    18   ar
    17     3    19    1
    18    20    19    1
    19    20    21    1
    20    21    22    1
    21    22    23    1
    22    23    24    1
    23    25    24    1
    24     8     9   ar
    25     9     5   ar
    26    18    11   ar
    27    25    20    1
    28    25    21    1
    29    23    26    1
@<TRIPOS>MOLECULE
*****
 26 29 0 0 0
SMALL
GASTEIGER

@<TRIPOS>ATOM
      1 C         142.7981  143.6986  164.2689 C.2     1  UNL1        0.2686
      2 O         144.0437  144.3612  164.7782 O.2     1  UNL1       -0.2682
      3 N         142.3385  142.4032  164.8695 N.am    1  UNL1       -0.2707
      4 C         141.1638  145.1341  159.4575 C.3     1  UNL1        0.1321
      5 N         141.2608  144.9912  160.9475 N.ar    1  UNL1       -0.3057
      6 C         140.3439  145.6191  161.9551 C.ar    1  UNL1        0.1787
      7 N         140.8082  145.2114  163.3219 N.ar    1  UNL1       -0.2192
      8 C         142.0120  144.3314  163.1591 C.ar    1  UNL1        0.1535
      9 C         142.2918  144.1953  161.6917 C.ar    1  UNL1        0.1012
     10 C         143.1246  141.7703  165.9792 C.3     1  UNL1        0.1205
     11 C         142.4428  141.3940  167.2613 C.ar    1  UNL1       -0.0013
     12 C         142.5986  140.0087  167.8150 C.ar    1  UNL1       -0.0003
     13 C         141.9168  139.6323  169.0969 C.ar    1  UNL1        0.0302
     14 C         141.0792  140.6413  169.8252 C.ar    1  UNL1        0.1506
     15 F         140.3974  140.2649  171.1073 F       1  UNL1       -0.2033
     16 C         140.9234  142.0266  169.2715 C.ar    1  UNL1        0.0848
     17 CL        140.0858  143.0356  169.9998 Cl      1  UNL1       -0.0799
     18 C         141.6052  142.4029  167.9896 C.ar    1  UNL1        0.0111
     19 C         141.0929  141.7405  164.3602 C.3     1  UNL1        0.0941
     20 C         141.1143  140.2872  163.9897 C.3     1  UNL1        0.0226
     21 C         141.2466  138.8470  164.3876 C.3     1  UNL1        0.0188
     22 C         141.3373  137.3526  164.4794 C.3     1  UNL1        0.0686
     23 N         141.1659  136.7920  163.0986 N.3     1  UNL1       -0.2975
     24 C         140.9694  137.9401  162.1534 C.3     1  UNL1        0.0686
     25 C         141.0192  139.2101  162.9500 C.3     1  UNL1        0.0188
     26 H         140.3512  136.1788  163.0726 H       1  UNL1        0.1232
@<TRIPOS>BOND
     1     4     5    1
     2     5     6   ar
     3     6     7   ar
     4     7     8   ar
     5     8     1    1
     6     1     2    2
     7     1     3   am
     8     3    10    1
     9    10    11    1
    10    11    12   ar
    11    12    13   ar
    12    13    14   ar
    13    14    15    1
    14    14    16   ar
    15    16    17    1
    16    16    18   ar
    17     3    19    1
    18    20    19    1
    19    20    21    1
    20    21    22    1
    21    22    23    1
    22    23    24    1
    23    25    24    1
    24     8     9   ar
    25     9     5   ar
    26    18    11   ar
    27    25    20    1
    28    25    21    1
    29    23    26    1
