@<TRIPOS>MOLECULE
*****
 38 43 0 0 0
SMALL
GASTEIGER

@<TRIPOS>ATOM
      1 C         137.7763  142.9176  163.1740 C.3     1  UNL1        0.0932
      2 C         137.9484  142.6790  161.7032 C.3     1  UNL1        0.0286
      3 C         137.9955  141.2772  161.1714 C.3     1  UNL1        0.0193
      4 C         137.8705  140.1142  162.1104 C.3     1  UNL1        0.0700
      5 C         137.6984  140.3529  163.5812 C.3     1  UNL1        0.0193
      6 C         137.6513  141.7546  164.1130 C.3     1  UNL1        0.0286
      7 C         137.8389  140.8642  162.4486 C.3     1  UNL1        0.1562
      8 O         137.7963  142.1317  162.9294 O.3     1  UNL1       -0.3572
      9 N         137.9177  138.7124  161.5785 N.3     1  UNL1       -0.2926
     10 H         137.3224  138.6915  160.7505 H       1  UNL1        0.1236
     11 C         139.2305  138.1039  161.1835 C.3     1  UNL1        0.1152
     12 C         140.4336  138.2808  162.0616 C.ar    1  UNL1        0.0765
     13 C         140.5946  137.4381  163.2919 C.ar    1  UNL1        0.0193
     14 C         141.7978  137.6151  164.1701 C.ar    1  UNL1        0.0411
     15 C         142.8399  138.6348  163.8178 C.ar    1  UNL1        0.1708
     16 C         142.6789  139.4776  162.5875 C.ar    1  UNL1        0.1682
     17 N         141.4758  139.3006  161.7093 N.ar    1  UNL1       -0.2304
     18 N         143.7211  140.4973  162.2352 N.am    1  UNL1       -0.2639
     19 C         144.9242  140.6743  163.1134 C.2     1  UNL1        0.2718
     20 O         145.9663  141.6940  162.7611 O.2     1  UNL1       -0.2707
     21 C         145.0852  139.8315  164.3437 C.3     1  UNL1        0.2898
     22 O         144.0431  138.8118  164.6960 O.3     1  UNL1       -0.4628
     23 H         143.6154  141.0505  161.4277 H       1  UNL1        0.1565
     24 C         137.7291  144.3194  163.7059 C.3     1  UNL1        0.0319
     25 C         138.8529  144.8382  164.5533 C.3     1  UNL1        0.0301
     26 C         140.8939  142.0268  167.4134 C.ar    1  UNL1        0.2250
     27 C         142.3009  141.5791  167.1492 C.ar    1  UNL1        0.0593
     28 C         143.0276  142.0685  165.9317 C.ar    1  UNL1        0.0254
     29 C         142.3473  143.0057  164.9783 C.ar    1  UNL1        0.0988
     30 N         143.0740  143.4951  163.7608 N.ar    1  UNL1       -0.2427
     31 C         142.3937  144.4323  162.8075 C.ar    1  UNL1        0.0943
     32 C         140.9866  144.8800  163.0716 C.ar    1  UNL1       -0.0052
     33 C         140.3063  145.8171  162.1183 C.3     1  UNL1        0.0324
     34 C         140.2599  144.3905  164.2892 C.ar    1  UNL1       -0.0053
     35 C         140.9403  143.4534  165.2425 C.ar    1  UNL1        0.0977
     36 N         140.2136  142.9639  166.4600 N.ar    1  UNL1       -0.2105
     37 C         139.5129  140.1876  168.6217 C.3     1  UNL1        0.2542
     38 O         140.1672  141.5373  168.6309 O.3     1  UNL1       -0.4561
@<TRIPOS>BOND
     1    37    38    1
     2    38    26    1
     3    26    27   ar
     4    27    28   ar
     5    28    29   ar
     6    29    30   ar
     7    30    31   ar
     8    31    32   ar
     9    32    33    1
    10    32    34   ar
    11    34    25    1
    12    25    24    1
    13    24     1    1
    14     1     2    1
    15     2     3    1
    16     3     4    1
    17     4     9    1
    18     9    11    1
    19    11    12    1
    20    12    13   ar
    21    13    14   ar
    22    14    15   ar
    23    15    16   ar
    24    16    17   ar
    25    16    18    1
    26    18    19   am
    27    19    20    2
    28    19    21    1
    29    21    22    1
    30     4     5    1
    31     5     6    1
    32     4     7    1
    33     7     8    1
    34    34    35   ar
    35    35    36   ar
    36    36    26   ar
    37    35    29   ar
    38     6     1    1
    39     8     1    1
    40    17    12   ar
    41    22    15    1
    42     9    10    1
    43    18    23    1
@<TRIPOS>MOLECULE
*****
 38 43 0 0 0
SMALL
GASTEIGER

@<TRIPOS>ATOM
      1 C         141.7959  138.0976  164.2948 C.3     1  UNL1        0.0932
      2 C         141.9790  138.4747  162.8545 C.3     1  UNL1        0.0286
      3 C         143.2016  139.2311  162.4269 C.3     1  UNL1        0.0193
      4 C         144.2412  139.6104  163.4395 C.3     1  UNL1        0.0700
      5 C         144.0582  139.2334  164.8797 C.3     1  UNL1        0.0193
      6 C         142.8355  138.4770  165.3073 C.3     1  UNL1        0.0286
      7 C         143.5880  139.1961  163.7214 C.3     1  UNL1        0.1562
      8 O         142.4824  138.5121  164.1081 O.3     1  UNL1       -0.3572
      9 N         145.4639  140.3669  163.0118 N.3     1  UNL1       -0.2926
     10 H         145.5452  140.2485  162.0019 H       1  UNL1        0.1236
     11 C         145.5696  141.8379  163.2852 C.3     1  UNL1        0.1152
     12 C         144.3582  142.7133  163.1580 C.ar    1  UNL1        0.0765
     13 C         143.6459  143.1914  164.3885 C.ar    1  UNL1        0.0193
     14 C         142.4344  144.0668  164.2613 C.ar    1  UNL1        0.0411
     15 C         141.9353  144.4640  162.9037 C.ar    1  UNL1        0.1708
     16 C         142.6476  143.9858  161.6732 C.ar    1  UNL1        0.1682
     17 N         143.8590  143.1105  161.8004 N.ar    1  UNL1       -0.2304
     18 N         142.1485  144.3831  160.3156 N.am    1  UNL1       -0.2639
     19 C         140.9371  145.2584  160.1885 C.2     1  UNL1        0.2718
     20 O         140.4380  145.6556  158.8309 O.2     1  UNL1       -0.2707
     21 C         140.2248  145.7366  161.4189 C.3     1  UNL1        0.2898
     22 O         140.7239  145.3394  162.7765 O.3     1  UNL1       -0.4628
     23 H         142.6160  144.0693  159.5080 H       1  UNL1        0.1565
     24 C         140.5732  137.3412  164.7225 C.3     1  UNL1        0.0319
     25 C         139.3309  138.0843  165.1155 C.3     1  UNL1        0.0301
     26 C         140.7075  140.8638  168.3758 C.ar    1  UNL1        0.2250
     27 C         140.6277  142.3486  168.1787 C.ar    1  UNL1        0.0593
     28 C         140.0891  142.9070  166.8949 C.ar    1  UNL1        0.0254
     29 C         139.6302  141.9805  165.8082 C.ar    1  UNL1        0.0988
     30 N         139.0916  142.5389  164.5244 N.ar    1  UNL1       -0.2427
     31 C         138.6327  141.6124  163.4376 C.ar    1  UNL1        0.0943
     32 C         138.7125  140.1275  163.6347 C.ar    1  UNL1       -0.0052
     33 C         138.2536  139.2010  162.5479 C.3     1  UNL1        0.0324
     34 C         139.2511  139.5691  164.9185 C.ar    1  UNL1       -0.0053
     35 C         139.7100  140.4957  166.0052 C.ar    1  UNL1        0.0977
     36 N         140.2486  139.9373  167.2890 N.ar    1  UNL1       -0.2105
     37 C         142.4115  139.3614  169.6363 C.3     1  UNL1        0.2542
     38 O         141.2461  140.3054  169.6596 O.3     1  UNL1       -0.4561
@<TRIPOS>BOND
     1    37    38    1
     2    38    26    1
     3    26    27   ar
     4    27    28   ar
     5    28    29   ar
     6    29    30   ar
     7    30    31   ar
     8    31    32   ar
     9    32    33    1
    10    32    34   ar
    11    34    25    1
    12    25    24    1
    13    24     1    1
    14     1     2    1
    15     2     3    1
    16     3     4    1
    17     4     9    1
    18     9    11    1
    19    11    12    1
    20    12    13   ar
    21    13    14   ar
    22    14    15   ar
    23    15    16   ar
    24    16    17   ar
    25    16    18    1
    26    18    19   am
    27    19    20    2
    28    19    21    1
    29    21    22    1
    30     4     5    1
    31     5     6    1
    32     4     7    1
    33     7     8    1
    34    34    35   ar
    35    35    36   ar
    36    36    26   ar
    37    35    29   ar
    38     6     1    1
    39     8     1    1
    40    17    12   ar
    41    22    15    1
    42     9    10    1
    43    18    23    1
@<TRIPOS>MOLECULE
*****
 38 43 0 0 0
SMALL
GASTEIGER

@<TRIPOS>ATOM
      1 C         141.6498  138.5342  164.5217 C.3     1  UNL1        0.0932
      2 C         142.8667  138.7001  165.3827 C.3     1  UNL1        0.0286
      3 C         144.0972  139.3516  164.8247 C.3     1  UNL1        0.0193
      4 C         144.1107  139.8372  163.4055 C.3     1  UNL1        0.0700
      5 C         142.8938  139.6714  162.5445 C.3     1  UNL1        0.0193
      6 C         141.6633  139.0199  163.1025 C.3     1  UNL1        0.0286
      7 C         143.4132  139.4865  163.6670 C.3     1  UNL1        0.1562
      8 O         142.3006  138.8974  164.1716 O.3     1  UNL1       -0.3572
      9 N         145.3413  140.4888  162.8475 N.3     1  UNL1       -0.2926
     10 H         145.3289  140.3275  161.8404 H       1  UNL1        0.1236
     11 C         145.5686  141.9578  163.0480 C.3     1  UNL1        0.1152
     12 C         144.4077  142.9072  163.0190 C.ar    1  UNL1        0.0765
     13 C         143.9599  143.5831  164.2810 C.ar    1  UNL1        0.0193
     14 C         142.7989  144.5325  164.2520 C.ar    1  UNL1        0.0411
     15 C         142.0857  144.8059  162.9610 C.ar    1  UNL1        0.1708
     16 C         142.5335  144.1300  161.6990 C.ar    1  UNL1        0.1682
     17 N         143.6944  143.1806  161.7280 N.ar    1  UNL1       -0.2304
     18 N         141.8202  144.4034  160.4081 N.am    1  UNL1       -0.2639
     19 C         140.6593  145.3528  160.3791 C.2     1  UNL1        0.2718
     20 O         139.9461  145.6262  159.0882 O.2     1  UNL1       -0.2707
     21 C         140.2116  146.0288  161.6411 C.3     1  UNL1        0.2898
     22 O         140.9247  145.7554  162.9320 O.3     1  UNL1       -0.4628
     23 H         142.1141  143.9598  159.5798 H       1  UNL1        0.1565
     24 C         140.4192  137.8827  165.0797 C.3     1  UNL1        0.0319
     25 C         139.4154  138.7005  165.8370 C.3     1  UNL1        0.0301
     26 C         137.8855  141.3716  162.5545 C.ar    1  UNL1        0.2250
     27 C         138.0540  142.8585  162.6578 C.ar    1  UNL1        0.0593
     28 C         138.7326  143.4550  163.8551 C.ar    1  UNL1        0.0254
     29 C         139.2425  142.5647  164.9493 C.ar    1  UNL1        0.0988
     30 N         139.9211  143.1613  166.1466 N.ar    1  UNL1       -0.2427
     31 C         140.4311  142.2709  167.2408 C.ar    1  UNL1        0.0943
     32 C         140.2625  140.7840  167.1376 C.ar    1  UNL1       -0.0052
     33 C         140.7725  139.8936  168.2317 C.3     1  UNL1        0.0324
     34 C         139.5840  140.1874  165.9402 C.ar    1  UNL1       -0.0053
     35 C         139.0740  141.0778  164.8460 C.ar    1  UNL1        0.0977
     36 N         138.3954  140.4813  163.6487 N.ar    1  UNL1       -0.2105
     37 C         137.4468  139.3388  160.9972 C.3     1  UNL1        0.2542
     38 O         137.2069  140.7750  161.3572 O.3     1  UNL1       -0.4561
@<TRIPOS>BOND
     1    37    38    1
     2    38    26    1
     3    26    27   ar
     4    27    28   ar
     5    28    29   ar
     6    29    30   ar
     7    30    31   ar
     8    31    32   ar
     9    32    33    1
    10    32    34   ar
    11    34    25    1
    12    25    24    1
    13    24     1    1
    14     1     2    1
    15     2     3    1
    16     3     4    1
    17     4     9    1
    18     9    11    1
    19    11    12    1
    20    12    13   ar
    21    13    14   ar
    22    14    15   ar
    23    15    16   ar
    24    16    17   ar
    25    16    18    1
    26    18    19   am
    27    19    20    2
    28    19    21    1
    29    21    22    1
    30     4     5    1
    31     5     6    1
    32     4     7    1
    33     7     8    1
    34    34    35   ar
    35    35    36   ar
    36    36    26   ar
    37    35    29   ar
    38     6     1    1
    39     8     1    1
    40    17    12   ar
    41    22    15    1
    42     9    10    1
    43    18    23    1
@<TRIPOS>MOLECULE
*****
 38 43 0 0 0
SMALL
GASTEIGER

@<TRIPOS>ATOM
      1 C         144.4645  139.7275  163.7096 C.3     1  UNL1        0.0932
      2 C         143.5161  139.3327  164.8026 C.3     1  UNL1        0.0286
      3 C         142.3447  138.4476  164.4956 C.3     1  UNL1        0.0193
      4 C         142.1217  137.9571  163.0957 C.3     1  UNL1        0.0700
      5 C         143.0701  138.3519  162.0027 C.3     1  UNL1        0.0193
      6 C         144.2415  139.2370  162.3097 C.3     1  UNL1        0.0286
      7 C         142.7776  138.4402  163.2155 C.3     1  UNL1        0.1562
      8 O         143.8368  139.2406  163.4930 O.3     1  UNL1       -0.3572
      9 N         140.9502  137.0719  162.7888 N.3     1  UNL1       -0.2926
     10 H         140.7719  136.5185  163.6268 H       1  UNL1        0.1236
     11 C         139.6393  137.6769  162.3823 C.3     1  UNL1        0.1152
     12 C         139.1802  138.9612  163.0066 C.ar    1  UNL1        0.0765
     13 C         138.6240  138.9612  164.3996 C.ar    1  UNL1        0.0193
     14 C         138.1649  140.2456  165.0239 C.ar    1  UNL1        0.0411
     15 C         138.2622  141.5299  164.2551 C.ar    1  UNL1        0.1708
     16 C         138.8185  141.5299  162.8621 C.ar    1  UNL1        0.1682
     17 N         139.2775  140.2456  162.2378 N.ar    1  UNL1       -0.2304
     18 N         138.9157  142.8143  162.0933 N.am    1  UNL1       -0.2639
     19 C         138.4567  144.0986  162.7176 C.2     1  UNL1        0.2718
     20 O         138.5539  145.3830  161.9489 O.2     1  UNL1       -0.2707
     21 C         137.9004  144.0986  164.1107 C.3     1  UNL1        0.2898
     22 O         137.8032  142.8143  164.8794 O.3     1  UNL1       -0.4628
     23 H         139.2808  142.8144  161.1790 H       1  UNL1        0.1565
     24 C         145.6360  140.6127  164.0165 C.3     1  UNL1        0.0319
     25 C         145.6574  142.0277  163.5192 C.3     1  UNL1        0.0301
     26 C         144.2609  142.6312  159.2841 C.ar    1  UNL1        0.2250
     27 C         142.9728  143.3509  159.0146 C.ar    1  UNL1        0.0593
     28 C         142.1502  143.8696  160.1566 C.ar    1  UNL1        0.0254
     29 C         142.6157  143.6684  161.5683 C.ar    1  UNL1        0.0988
     30 N         141.7931  144.1871  162.7104 N.ar    1  UNL1       -0.2427
     31 C         142.2586  143.9859  164.1220 C.ar    1  UNL1        0.0943
     32 C         143.5467  143.2661  164.3917 C.ar    1  UNL1       -0.0052
     33 C         144.0122  143.0649  165.8033 C.3     1  UNL1        0.0324
     34 C         144.3693  142.7475  163.2496 C.ar    1  UNL1       -0.0053
     35 C         143.9038  142.9486  161.8379 C.ar    1  UNL1        0.0977
     36 N         144.7264  142.4300  160.6958 N.ar    1  UNL1       -0.2105
     37 C         144.6263  140.9074  157.3749 C.3     1  UNL1        0.2542
     38 O         145.0835  142.1125  158.1420 O.3     1  UNL1       -0.4561
@<TRIPOS>BOND
     1    37    38    1
     2    38    26    1
     3    26    27   ar
     4    27    28   ar
     5    28    29   ar
     6    29    30   ar
     7    30    31   ar
     8    31    32   ar
     9    32    33    1
    10    32    34   ar
    11    34    25    1
    12    25    24    1
    13    24     1    1
    14     1     2    1
    15     2     3    1
    16     3     4    1
    17     4     9    1
    18     9    11    1
    19    11    12    1
    20    12    13   ar
    21    13    14   ar
    22    14    15   ar
    23    15    16   ar
    24    16    17   ar
    25    16    18    1
    26    18    19   am
    27    19    20    2
    28    19    21    1
    29    21    22    1
    30     4     5    1
    31     5     6    1
    32     4     7    1
    33     7     8    1
    34    34    35   ar
    35    35    36   ar
    36    36    26   ar
    37    35    29   ar
    38     6     1    1
    39     8     1    1
    40    17    12   ar
    41    22    15    1
    42     9    10    1
    43    18    23    1
@<TRIPOS>MOLECULE
*****
 38 43 0 0 0
SMALL
GASTEIGER

@<TRIPOS>ATOM
      1 C         144.4093  139.7299  163.7753 C.3     1  UNL1        0.0932
      2 C         143.5792  139.0453  164.8205 C.3     1  UNL1        0.0286
      3 C         142.4348  138.1660  164.4119 C.3     1  UNL1        0.0193
      4 C         142.1203  137.9713  162.9582 C.3     1  UNL1        0.0700
      5 C         142.9503  138.6559  161.9131 C.3     1  UNL1        0.0193
      6 C         144.0948  139.5352  162.3216 C.3     1  UNL1        0.0286
      7 C         142.7573  138.4625  163.1335 C.3     1  UNL1        0.1562
      8 O         143.7922  139.2576  163.5030 O.3     1  UNL1       -0.3572
      9 N         140.9757  137.0919  162.5497 N.3     1  UNL1       -0.2926
     10 H         140.7686  136.4892  163.3461 H       1  UNL1        0.1236
     11 C         139.6755  137.7043  162.1205 C.3     1  UNL1        0.1152
     12 C         139.1666  138.9392  162.8031 C.ar    1  UNL1        0.0765
     13 C         138.5872  138.8482  164.1838 C.ar    1  UNL1        0.0193
     14 C         138.0783  140.0831  164.8665 C.ar    1  UNL1        0.0411
     15 C         138.1487  141.4089  164.1685 C.ar    1  UNL1        0.1708
     16 C         138.7280  141.4999  162.7879 C.ar    1  UNL1        0.1682
     17 N         139.2369  140.2651  162.1052 N.ar    1  UNL1       -0.2304
     18 N         138.7983  142.8259  162.0900 N.am    1  UNL1       -0.2639
     19 C         138.2894  144.0607  162.7727 C.2     1  UNL1        0.2718
     20 O         138.3598  145.3865  162.0747 O.2     1  UNL1       -0.2707
     21 C         137.7101  143.9697  164.1533 C.3     1  UNL1        0.2898
     22 O         137.6397  142.6439  164.8512 O.3     1  UNL1       -0.4628
     23 H         139.1786  142.8856  161.1838 H       1  UNL1        0.1565
     24 C         145.5538  140.6092  164.1838 C.3     1  UNL1        0.0319
     25 C         145.3237  142.0693  164.4394 C.3     1  UNL1        0.0301
     26 C         142.3268  141.9141  167.7927 C.ar    1  UNL1        0.2250
     27 C         140.9598  142.5021  167.6046 C.ar    1  UNL1        0.0593
     28 C         140.5917  143.1419  166.2987 C.ar    1  UNL1        0.0254
     29 C         141.5907  143.1937  165.1810 C.ar    1  UNL1        0.0988
     30 N         141.2226  143.8334  163.8752 N.ar    1  UNL1       -0.2427
     31 C         142.2216  143.8852  162.7574 C.ar    1  UNL1        0.0943
     32 C         143.5887  143.2971  162.9455 C.ar    1  UNL1       -0.0052
     33 C         144.5876  143.3489  161.8278 C.3     1  UNL1        0.0324
     34 C         143.9567  142.6573  164.2513 C.ar    1  UNL1       -0.0053
     35 C         142.9577  142.6056  165.3691 C.ar    1  UNL1        0.0977
     36 N         143.3258  141.9658  166.6749 N.ar    1  UNL1       -0.2105
     37 C         142.7255  142.0951  170.3536 C.3     1  UNL1        0.2542
     38 O         142.6949  141.2743  169.0985 O.3     1  UNL1       -0.4561
@<TRIPOS>BOND
     1    37    38    1
     2    38    26    1
     3    26    27   ar
     4    27    28   ar
     5    28    29   ar
     6    29    30   ar
     7    30    31   ar
     8    31    32   ar
     9    32    33    1
    10    32    34   ar
    11    34    25    1
    12    25    24    1
    13    24     1    1
    14     1     2    1
    15     2     3    1
    16     3     4    1
    17     4     9    1
    18     9    11    1
    19    11    12    1
    20    12    13   ar
    21    13    14   ar
    22    14    15   ar
    23    15    16   ar
    24    16    17   ar
    25    16    18    1
    26    18    19   am
    27    19    20    2
    28    19    21    1
    29    21    22    1
    30     4     5    1
    31     5     6    1
    32     4     7    1
    33     7     8    1
    34    34    35   ar
    35    35    36   ar
    36    36    26   ar
    37    35    29   ar
    38     6     1    1
    39     8     1    1
    40    17    12   ar
    41    22    15    1
    42     9    10    1
    43    18    23    1
@<TRIPOS>MOLECULE
*****
 38 43 0 0 0
SMALL
GASTEIGER

@<TRIPOS>ATOM
      1 C         141.8744  138.1215  164.2330 C.3     1  UNL1        0.0932
      2 C         142.7290  138.7299  165.3051 C.3     1  UNL1        0.0286
      3 C         143.9409  139.5317  164.9334 C.3     1  UNL1        0.0193
      4 C         144.2983  139.7250  163.4894 C.3     1  UNL1        0.0700
      5 C         143.4438  139.1166  162.4173 C.3     1  UNL1        0.0193
      6 C         142.2318  138.3148  162.7891 C.3     1  UNL1        0.0286
      7 C         143.6247  139.2777  163.6443 C.3     1  UNL1        0.1562
      8 O         142.5288  138.5527  163.9805 O.3     1  UNL1       -0.3572
      9 N         145.5104  140.5268  163.1177 N.3     1  UNL1       -0.2926
     10 H         145.8536  140.1494  162.2345 H       1  UNL1        0.1236
     11 C         145.4015  142.0123  162.9405 C.3     1  UNL1        0.1152
     12 C         144.4186  142.5807  161.9604 C.ar    1  UNL1        0.0765
     13 C         144.4970  142.1980  160.5121 C.ar    1  UNL1        0.0193
     14 C         143.5140  142.7664  159.5319 C.ar    1  UNL1        0.0411
     15 C         142.4527  143.7174  160.0000 C.ar    1  UNL1        0.1708
     16 C         142.3743  144.1001  161.4483 C.ar    1  UNL1        0.1682
     17 N         143.3572  143.5318  162.4284 N.ar    1  UNL1       -0.2304
     18 N         141.3129  145.0512  161.9163 N.am    1  UNL1       -0.2639
     19 C         140.3300  145.6196  160.9361 C.2     1  UNL1        0.2718
     20 O         139.2687  146.5706  161.4042 O.2     1  UNL1       -0.2707
     21 C         140.4084  145.2369  159.4879 C.3     1  UNL1        0.2898
     22 O         141.4697  144.2859  159.0198 O.3     1  UNL1       -0.4628
     23 H         141.2615  145.3024  162.8668 H       1  UNL1        0.1565
     24 C         140.6624  137.3197  164.6048 C.3     1  UNL1        0.0319
     25 C         139.3584  138.0114  164.8715 C.3     1  UNL1        0.0301
     26 C         140.2404  141.9656  166.8301 C.ar    1  UNL1        0.2250
     27 C         139.9108  143.2447  166.1194 C.ar    1  UNL1        0.0593
     28 C         139.2872  143.2057  164.7557 C.ar    1  UNL1        0.0254
     29 C         138.9932  141.8877  164.1028 C.ar    1  UNL1        0.0988
     30 N         138.3695  141.8487  162.7392 N.ar    1  UNL1       -0.2427
     31 C         138.0755  140.5307  162.0863 C.ar    1  UNL1        0.0943
     32 C         138.4051  139.2515  162.7971 C.ar    1  UNL1       -0.0052
     33 C         138.1111  137.9335  162.1442 C.3     1  UNL1        0.0324
     34 C         139.0288  139.2905  164.1607 C.ar    1  UNL1       -0.0053
     35 C         139.3228  140.6086  164.8136 C.ar    1  UNL1        0.0977
     36 N         139.9464  140.6475  166.1773 N.ar    1  UNL1       -0.2105
     37 C         140.5329  143.1217  169.1383 C.3     1  UNL1        0.2542
     38 O         140.8641  142.0045  168.1938 O.3     1  UNL1       -0.4561
@<TRIPOS>BOND
     1    37    38    1
     2    38    26    1
     3    26    27   ar
     4    27    28   ar
     5    28    29   ar
     6    29    30   ar
     7    30    31   ar
     8    31    32   ar
     9    32    33    1
    10    32    34   ar
    11    34    25    1
    12    25    24    1
    13    24     1    1
    14     1     2    1
    15     2     3    1
    16     3     4    1
    17     4     9    1
    18     9    11    1
    19    11    12    1
    20    12    13   ar
    21    13    14   ar
    22    14    15   ar
    23    15    16   ar
    24    16    17   ar
    25    16    18    1
    26    18    19   am
    27    19    20    2
    28    19    21    1
    29    21    22    1
    30     4     5    1
    31     5     6    1
    32     4     7    1
    33     7     8    1
    34    34    35   ar
    35    35    36   ar
    36    36    26   ar
    37    35    29   ar
    38     6     1    1
    39     8     1    1
    40    17    12   ar
    41    22    15    1
    42     9    10    1
    43    18    23    1
@<TRIPOS>MOLECULE
*****
 38 43 0 0 0
SMALL
GASTEIGER

@<TRIPOS>ATOM
      1 C         139.7198  137.9362  164.4803 C.3     1  UNL1        0.0932
      2 C         141.1394  137.8938  164.9628 C.3     1  UNL1        0.0286
      3 C         142.2642  137.7897  163.9759 C.3     1  UNL1        0.0193
      4 C         141.9693  137.7280  162.5064 C.3     1  UNL1        0.0700
      5 C         140.5497  137.7704  162.0239 C.3     1  UNL1        0.0193
      6 C         139.4249  137.8745  163.0109 C.3     1  UNL1        0.0286
      7 C         141.3198  137.7847  163.0092 C.3     1  UNL1        0.1562
      8 O         140.3028  137.8788  163.9017 O.3     1  UNL1       -0.3572
      9 N         143.0941  137.6239  161.5195 N.3     1  UNL1       -0.2926
     10 H         142.8238  136.9140  160.8387 H       1  UNL1        0.1236
     11 C         143.5215  138.8316  160.7392 C.3     1  UNL1        0.1152
     12 C         143.3252  140.2034  161.3133 C.ar    1  UNL1        0.0765
     13 C         142.3547  141.1520  160.6744 C.ar    1  UNL1        0.0193
     14 C         142.1584  142.5239  161.2485 C.ar    1  UNL1        0.0411
     15 C         142.9327  142.9470  162.4615 C.ar    1  UNL1        0.1708
     16 C         143.9033  141.9984  163.1004 C.ar    1  UNL1        0.1682
     17 N         144.0995  140.6266  162.5263 N.ar    1  UNL1       -0.2304
     18 N         144.6776  142.4217  164.3134 N.am    1  UNL1       -0.2639
     19 C         144.4814  143.7935  164.8875 C.2     1  UNL1        0.2718
     20 O         145.2557  144.2167  166.1005 O.2     1  UNL1       -0.2707
     21 C         143.5108  144.7421  164.2486 C.3     1  UNL1        0.2898
     22 O         142.7365  144.3189  163.0357 O.3     1  UNL1       -0.4628
     23 H         145.3146  141.7991  164.7328 H       1  UNL1        0.1565
     24 C         138.5950  138.0404  165.4673 C.3     1  UNL1        0.0319
     25 C         138.0560  139.3866  165.8509 C.3     1  UNL1        0.0301
     26 C         141.2335  140.3347  168.8930 C.ar    1  UNL1        0.2250
     27 C         142.0862  141.5580  168.7305 C.ar    1  UNL1        0.0593
     28 C         141.8797  142.4653  167.5540 C.ar    1  UNL1        0.0254
     29 C         140.8205  142.1493  166.5400 C.ar    1  UNL1        0.0988
     30 N         140.6140  143.0566  165.3634 N.ar    1  UNL1       -0.2427
     31 C         139.5549  142.7406  164.3494 C.ar    1  UNL1        0.0943
     32 C         138.7022  141.5172  164.5119 C.ar    1  UNL1       -0.0052
     33 C         137.6430  141.2012  163.4978 C.3     1  UNL1        0.0324
     34 C         138.9087  140.6099  165.6884 C.ar    1  UNL1       -0.0053
     35 C         139.9679  140.9260  166.7024 C.ar    1  UNL1        0.0977
     36 N         140.1744  140.0187  167.8790 N.ar    1  UNL1       -0.2105
     37 C         142.6846  138.5958  170.1659 C.3     1  UNL1        0.2542
     38 O         141.4400  139.4274  170.0695 O.3     1  UNL1       -0.4561
@<TRIPOS>BOND
     1    37    38    1
     2    38    26    1
     3    26    27   ar
     4    27    28   ar
     5    28    29   ar
     6    29    30   ar
     7    30    31   ar
     8    31    32   ar
     9    32    33    1
    10    32    34   ar
    11    34    25    1
    12    25    24    1
    13    24     1    1
    14     1     2    1
    15     2     3    1
    16     3     4    1
    17     4     9    1
    18     9    11    1
    19    11    12    1
    20    12    13   ar
    21    13    14   ar
    22    14    15   ar
    23    15    16   ar
    24    16    17   ar
    25    16    18    1
    26    18    19   am
    27    19    20    2
    28    19    21    1
    29    21    22    1
    30     4     5    1
    31     5     6    1
    32     4     7    1
    33     7     8    1
    34    34    35   ar
    35    35    36   ar
    36    36    26   ar
    37    35    29   ar
    38     6     1    1
    39     8     1    1
    40    17    12   ar
    41    22    15    1
    42     9    10    1
    43    18    23    1
@<TRIPOS>MOLECULE
*****
 38 43 0 0 0
SMALL
GASTEIGER

@<TRIPOS>ATOM
      1 C         137.9977  142.6377  163.8967 C.3     1  UNL1        0.0932
      2 C         138.0078  141.3560  164.6757 C.3     1  UNL1        0.0286
      3 C         137.9468  140.0409  163.9568 C.3     1  UNL1        0.0193
      4 C         137.8758  140.0077  162.4588 C.3     1  UNL1        0.0700
      5 C         137.8657  141.2894  161.6798 C.3     1  UNL1        0.0193
      6 C         137.9267  142.6045  162.3987 C.3     1  UNL1        0.0286
      7 C         137.9076  140.7524  162.8085 C.3     1  UNL1        0.1562
      8 O         137.9627  141.9415  163.4586 O.3     1  UNL1       -0.3572
      9 N         137.8148  138.6925  161.7399 N.3     1  UNL1       -0.2926
     10 H         137.1185  138.7927  161.0013 H       1  UNL1        0.1236
     11 C         139.0487  138.1305  161.0984 C.3     1  UNL1        0.1152
     12 C         140.3981  138.4217  161.6852 C.ar    1  UNL1        0.0765
     13 C         141.4765  139.0152  160.8280 C.ar    1  UNL1        0.0193
     14 C         142.8259  139.3064  161.4149 C.ar    1  UNL1        0.0411
     15 C         143.0968  139.0041  162.8589 C.ar    1  UNL1        0.1708
     16 C         142.0184  138.4106  163.7161 C.ar    1  UNL1        0.1682
     17 N         140.6690  138.1195  163.1293 N.ar    1  UNL1       -0.2304
     18 N         142.2894  138.1084  165.1602 N.am    1  UNL1       -0.2639
     19 C         143.6387  138.3996  165.7470 C.2     1  UNL1        0.2718
     20 O         143.9096  138.0973  167.1910 O.2     1  UNL1       -0.2707
     21 C         144.7172  138.9930  164.8898 C.3     1  UNL1        0.2898
     22 O         144.4463  139.2953  163.4458 O.3     1  UNL1       -0.4628
     23 H         141.5816  137.7189  165.7228 H       1  UNL1        0.1565
     24 C         138.0587  143.9529  164.6156 C.3     1  UNL1        0.0319
     25 C         139.3872  144.5651  164.9478 C.3     1  UNL1        0.0301
     26 C         141.9239  144.4317  161.2334 C.ar    1  UNL1        0.2250
     27 C         143.1658  143.5910  161.2031 C.ar    1  UNL1        0.0593
     28 C         143.5621  142.7948  162.4110 C.ar    1  UNL1        0.0254
     29 C         142.7165  142.8392  163.6491 C.ar    1  UNL1        0.0988
     30 N         143.1128  142.0429  164.8570 N.ar    1  UNL1       -0.2427
     31 C         142.2672  142.0874  166.0951 C.ar    1  UNL1        0.0943
     32 C         141.0253  142.9281  166.1254 C.ar    1  UNL1       -0.0052
     33 C         140.1797  142.9726  167.3635 C.3     1  UNL1        0.0324
     34 C         140.6290  143.7244  164.9175 C.ar    1  UNL1       -0.0053
     35 C         141.4747  143.6799  163.6794 C.ar    1  UNL1        0.0977
     36 N         141.0784  144.4762  162.4715 N.ar    1  UNL1       -0.2105
     37 C         140.4713  144.7066  159.0970 C.3     1  UNL1        0.2542
     38 O         141.5277  145.2280  160.0255 O.3     1  UNL1       -0.4561
@<TRIPOS>BOND
     1    37    38    1
     2    38    26    1
     3    26    27   ar
     4    27    28   ar
     5    28    29   ar
     6    29    30   ar
     7    30    31   ar
     8    31    32   ar
     9    32    33    1
    10    32    34   ar
    11    34    25    1
    12    25    24    1
    13    24     1    1
    14     1     2    1
    15     2     3    1
    16     3     4    1
    17     4     9    1
    18     9    11    1
    19    11    12    1
    20    12    13   ar
    21    13    14   ar
    22    14    15   ar
    23    15    16   ar
    24    16    17   ar
    25    16    18    1
    26    18    19   am
    27    19    20    2
    28    19    21    1
    29    21    22    1
    30     4     5    1
    31     5     6    1
    32     4     7    1
    33     7     8    1
    34    34    35   ar
    35    35    36   ar
    36    36    26   ar
    37    35    29   ar
    38     6     1    1
    39     8     1    1
    40    17    12   ar
    41    22    15    1
    42     9    10    1
    43    18    23    1
@<TRIPOS>MOLECULE
*****
 38 43 0 0 0
SMALL
GASTEIGER

@<TRIPOS>ATOM
      1 C         139.7646  138.1872  164.2504 C.3     1  UNL1        0.0932
      2 C         139.0977  139.0481  165.2819 C.3     1  UNL1        0.0286
      3 C         138.1432  140.1244  164.8570 C.3     1  UNL1        0.0193
      4 C         137.8556  140.3398  163.4007 C.3     1  UNL1        0.0700
      5 C         138.5226  139.4789  162.3692 C.3     1  UNL1        0.0193
      6 C         139.4770  138.4026  162.7941 C.3     1  UNL1        0.0286
      7 C         138.3859  139.7376  163.5851 C.3     1  UNL1        0.1562
      8 O         139.2490  138.7644  163.9693 O.3     1  UNL1       -0.3572
      9 N         136.9011  141.4161  162.9759 N.3     1  UNL1       -0.2926
     10 H         136.1052  141.3719  163.6122 H       1  UNL1        0.1236
     11 C         137.3504  142.8469  162.9432 C.3     1  UNL1        0.1152
     12 C         138.7705  143.1792  162.5929 C.ar    1  UNL1        0.0765
     13 C         139.2543  143.0109  161.1831 C.ar    1  UNL1        0.0193
     14 C         140.6745  143.3433  160.8328 C.ar    1  UNL1        0.0411
     15 C         141.6108  143.8439  161.8923 C.ar    1  UNL1        0.1708
     16 C         141.1270  144.0122  163.3022 C.ar    1  UNL1        0.1682
     17 N         139.7069  143.6799  163.6525 N.ar    1  UNL1       -0.2304
     18 N         142.0634  144.5129  164.3617 N.am    1  UNL1       -0.2639
     19 C         143.4835  144.8452  164.0114 C.2     1  UNL1        0.2718
     20 O         144.4199  145.3458  165.0709 O.2     1  UNL1       -0.2707
     21 C         143.9674  144.6769  162.6016 C.3     1  UNL1        0.2898
     22 O         143.0310  144.1763  161.5421 O.3     1  UNL1       -0.4628
     23 H         141.7459  144.6233  165.2870 H       1  UNL1        0.1565
     24 C         140.7191  137.1108  164.6752 C.3     1  UNL1        0.0319
     25 C         142.1803  137.4181  164.8188 C.3     1  UNL1        0.0301
     26 C         142.2340  140.1977  168.3573 C.ar    1  UNL1        0.2250
     27 C         142.7234  141.6065  168.1970 C.ar    1  UNL1        0.0593
     28 C         143.1950  142.0887  166.8572 C.ar    1  UNL1        0.0254
     29 C         143.1771  141.1622  165.6777 C.ar    1  UNL1        0.0988
     30 N         143.6486  141.6445  164.3379 N.ar    1  UNL1       -0.2427
     31 C         143.6308  140.7180  163.1584 C.ar    1  UNL1        0.0943
     32 C         143.1413  139.3091  163.3187 C.ar    1  UNL1       -0.0052
     33 C         143.1234  138.3826  162.1392 C.3     1  UNL1        0.0324
     34 C         142.6697  138.8269  164.6585 C.ar    1  UNL1       -0.0053
     35 C         142.6876  139.7535  165.8380 C.ar    1  UNL1        0.0977
     36 N         142.2161  139.2712  167.1778 N.ar    1  UNL1       -0.2105
     37 C         140.4418  140.1772  170.2382 C.3     1  UNL1        0.2542
     38 O         141.7624  139.7155  169.6971 O.3     1  UNL1       -0.4561
@<TRIPOS>BOND
     1    37    38    1
     2    38    26    1
     3    26    27   ar
     4    27    28   ar
     5    28    29   ar
     6    29    30   ar
     7    30    31   ar
     8    31    32   ar
     9    32    33    1
    10    32    34   ar
    11    34    25    1
    12    25    24    1
    13    24     1    1
    14     1     2    1
    15     2     3    1
    16     3     4    1
    17     4     9    1
    18     9    11    1
    19    11    12    1
    20    12    13   ar
    21    13    14   ar
    22    14    15   ar
    23    15    16   ar
    24    16    17   ar
    25    16    18    1
    26    18    19   am
    27    19    20    2
    28    19    21    1
    29    21    22    1
    30     4     5    1
    31     5     6    1
    32     4     7    1
    33     7     8    1
    34    34    35   ar
    35    35    36   ar
    36    36    26   ar
    37    35    29   ar
    38     6     1    1
    39     8     1    1
    40    17    12   ar
    41    22    15    1
    42     9    10    1
    43    18    23    1
