@<TRIPOS>MOLECULE
*****
 28 31 0 0 0
SMALL
GASTEIGER

@<TRIPOS>ATOM
      1 C         144.0897  139.4519  160.4259 C.3     1  UNL1        0.1123
      2 O         141.1386  140.8049  160.7576 O.2     1  UNL1       -0.2520
      3 C         142.4529  141.4846  161.0037 C.2     1  UNL1        0.3111
      4 N         143.8094  140.8628  160.8512 N.am    1  UNL1       -0.2606
      5 C         144.8364  141.8994  161.1987 C.3     1  UNL1        0.1169
      6 C         144.1146  143.1620  161.5660 C.3     1  UNL1        0.1212
      7 N         142.6415  142.9057  161.4454 N.am    1  UNL1       -0.2413
      8 C         141.5489  143.8965  161.7187 C.ar    1  UNL1        0.0562
      9 C         141.1517  144.8851  160.6628 C.ar    1  UNL1        0.0150
     10 C         140.0591  145.8759  160.9361 C.ar    1  UNL1        0.0021
     11 C         139.3638  145.8779  162.2651 C.ar    1  UNL1        0.0115
     12 C         139.7610  144.8893  163.3210 C.ar    1  UNL1        0.0589
     13 CL        139.0657  144.8914  164.6501 Cl      1  UNL1       -0.0822
     14 C         140.8536  143.8986  163.0478 C.ar    1  UNL1        0.0263
     15 C         143.9992  138.3357  161.4238 C.3     1  UNL1        0.0939
     16 N         143.4708  138.6028  162.8020 N.3     1  UNL1       -0.2712
     17 C         144.3455  139.2641  163.8255 C.3     1  UNL1        0.0725
     18 C         143.8170  139.5312  165.2037 C.3     1  UNL1        0.0217
     19 C         142.4139  139.1370  165.5583 C.3     1  UNL1        0.0251
     20 C         141.5392  138.4757  164.5349 C.3     1  UNL1        0.0217
     21 C         142.0676  138.2086  163.1567 C.3     1  UNL1        0.0725
     22 C         141.8854  139.4042  166.9366 C.ar    1  UNL1       -0.0224
     23 C         142.7755  139.2202  168.1298 C.ar    1  UNL1       -0.0034
     24 C         142.2471  139.4873  169.5080 C.ar    1  UNL1        0.0111
     25 C         140.8285  139.9384  169.6930 C.ar    1  UNL1        0.0577
     26 CL        140.3001  140.2056  171.0711 Cl      1  UNL1       -0.0822
     27 C         139.9384  140.1224  168.4997 C.ar    1  UNL1        0.0111
     28 C         140.4669  139.8553  167.1215 C.ar    1  UNL1       -0.0034
@<TRIPOS>BOND
     1     2     3    2
     2     3     4   am
     3     4     1    1
     4     1    15    1
     5    15    16    1
     6    16    17    1
     7    17    18    1
     8    18    19    1
     9    19    22    1
    10    22    23   ar
    11    23    24   ar
    12    24    25   ar
    13    25    26    1
    14    25    27   ar
    15    27    28   ar
    16    19    20    1
    17    20    21    1
    18     4     5    1
    19     5     6    1
    20     6     7    1
    21     7     8    1
    22     8     9   ar
    23     9    10   ar
    24    10    11   ar
    25    11    12   ar
    26    12    13    1
    27    12    14   ar
    28     7     3   am
    29    14     8   ar
    30    21    16    1
    31    28    22   ar
@<TRIPOS>MOLECULE
*****
 28 31 0 0 0
SMALL
GASTEIGER

@<TRIPOS>ATOM
      1 C         143.6927  139.0271  160.2863 C.3     1  UNL1        0.1123
      2 O         143.6050  141.9824  161.6677 O.2     1  UNL1       -0.2520
      3 C         142.4783  141.3190  160.9325 C.2     1  UNL1        0.3111
      4 N         142.5185  139.9606  160.2975 N.am    1  UNL1       -0.2606
      5 C         141.1787  139.6996  159.6757 C.3     1  UNL1        0.1169
      6 C         140.3103  140.8967  159.9264 C.3     1  UNL1        0.1212
      7 N         141.1134  141.8976  160.7031 N.am    1  UNL1       -0.2413
      8 C         140.6357  143.2411  161.1687 C.ar    1  UNL1        0.0562
      9 C         140.6274  144.4039  160.2211 C.ar    1  UNL1        0.0150
     10 C         140.1497  145.7474  160.6867 C.ar    1  UNL1        0.0021
     11 C         139.6802  145.9280  162.0998 C.ar    1  UNL1        0.0115
     12 C         139.6885  144.7652  163.0474 C.ar    1  UNL1        0.0589
     13 CL        139.2191  144.9459  164.4605 Cl      1  UNL1       -0.0822
     14 C         140.1663  143.4218  162.5818 C.ar    1  UNL1        0.0263
     15 C         143.8851  138.0506  161.4085 C.3     1  UNL1        0.0939
     16 N         143.3787  138.3772  162.7822 N.3     1  UNL1       -0.2712
     17 C         142.0252  137.8981  163.2162 C.3     1  UNL1        0.0725
     18 C         141.5189  138.2248  164.5898 C.3     1  UNL1        0.0217
     19 C         142.3661  139.0306  165.5294 C.3     1  UNL1        0.0251
     20 C         143.7196  139.5098  165.0954 C.3     1  UNL1        0.0217
     21 C         144.2259  139.1831  163.7218 C.3     1  UNL1        0.0725
     22 C         141.8597  139.3573  166.9031 C.ar    1  UNL1       -0.0224
     23 C         142.7635  139.2077  168.0908 C.ar    1  UNL1       -0.0034
     24 C         142.2571  139.5344  169.4645 C.ar    1  UNL1        0.0111
     25 C         140.8469  140.0107  169.6504 C.ar    1  UNL1        0.0577
     26 CL        140.3405  140.3373  171.0240 Cl      1  UNL1       -0.0822
     27 C         139.9431  140.1603  168.4625 C.ar    1  UNL1        0.0111
     28 C         140.4495  139.8336  167.0890 C.ar    1  UNL1       -0.0034
@<TRIPOS>BOND
     1     2     3    2
     2     3     4   am
     3     4     1    1
     4     1    15    1
     5    15    16    1
     6    16    17    1
     7    17    18    1
     8    18    19    1
     9    19    22    1
    10    22    23   ar
    11    23    24   ar
    12    24    25   ar
    13    25    26    1
    14    25    27   ar
    15    27    28   ar
    16    19    20    1
    17    20    21    1
    18     4     5    1
    19     5     6    1
    20     6     7    1
    21     7     8    1
    22     8     9   ar
    23     9    10   ar
    24    10    11   ar
    25    11    12   ar
    26    12    13    1
    27    12    14   ar
    28     7     3   am
    29    14     8   ar
    30    21    16    1
    31    28    22   ar
@<TRIPOS>MOLECULE
*****
 28 31 0 0 0
SMALL
GASTEIGER

@<TRIPOS>ATOM
      1 C         138.3726  139.2321  160.3993 C.3     1  UNL1        0.1123
      2 O         139.3392  138.2469  157.4422 O.2     1  UNL1       -0.2520
      3 C         140.2216  138.4372  158.6402 C.2     1  UNL1        0.3111
      4 N         139.7773  138.8900  159.9995 N.am    1  UNL1       -0.2606
      5 C         140.9843  138.9407  160.8887 C.3     1  UNL1        0.1169
      6 C         142.1745  138.5192  160.0790 C.3     1  UNL1        0.1212
      7 N         141.7032  138.2080  158.6894 N.am    1  UNL1       -0.2413
      8 C         142.5626  137.7483  157.5491 C.ar    1  UNL1        0.0562
      9 C         142.7763  136.2822  157.3146 C.ar    1  UNL1        0.0150
     10 C         143.6356  135.8225  156.1744 C.ar    1  UNL1        0.0021
     11 C         144.2813  136.8289  155.2687 C.ar    1  UNL1        0.0115
     12 C         144.0676  138.2950  155.5032 C.ar    1  UNL1        0.0589
     13 CL        144.7132  139.3013  154.5975 Cl      1  UNL1       -0.0822
     14 C         143.2082  138.7547  156.6434 C.ar    1  UNL1        0.0263
     15 C         137.7827  138.6420  161.6458 C.3     1  UNL1        0.0939
     16 N         138.2174  139.1430  162.9912 N.3     1  UNL1       -0.2712
     17 C         137.9503  140.5658  163.3839 C.3     1  UNL1        0.0725
     18 C         138.3849  141.0668  164.7292 C.3     1  UNL1        0.0217
     19 C         139.0866  140.1449  165.6820 C.3     1  UNL1        0.0251
     20 C         139.3537  138.7221  165.2894 C.3     1  UNL1        0.0217
     21 C         138.9191  138.2211  163.9440 C.3     1  UNL1        0.0725
     22 C         139.5212  140.6459  167.0275 C.ar    1  UNL1       -0.0224
     23 C         139.1840  139.8655  168.2632 C.ar    1  UNL1       -0.0034
     24 C         139.6186  140.3665  169.6087 C.ar    1  UNL1        0.0111
     25 C         140.3904  141.6480  169.7183 C.ar    1  UNL1        0.0577
     26 CL        140.8251  142.1490  171.0636 Cl      1  UNL1       -0.0822
     27 C         140.7276  142.4285  168.4824 C.ar    1  UNL1        0.0111
     28 C         140.2930  141.9275  167.1371 C.ar    1  UNL1       -0.0034
@<TRIPOS>BOND
     1     2     3    2
     2     3     4   am
     3     4     1    1
     4     1    15    1
     5    15    16    1
     6    16    17    1
     7    17    18    1
     8    18    19    1
     9    19    22    1
    10    22    23   ar
    11    23    24   ar
    12    24    25   ar
    13    25    26    1
    14    25    27   ar
    15    27    28   ar
    16    19    20    1
    17    20    21    1
    18     4     5    1
    19     5     6    1
    20     6     7    1
    21     7     8    1
    22     8     9   ar
    23     9    10   ar
    24    10    11   ar
    25    11    12   ar
    26    12    13    1
    27    12    14   ar
    28     7     3   am
    29    14     8   ar
    30    21    16    1
    31    28    22   ar
@<TRIPOS>MOLECULE
*****
 28 31 0 0 0
SMALL
GASTEIGER

@<TRIPOS>ATOM
      1 C         138.2191  139.1342  160.4877 C.3     1  UNL1        0.1123
      2 O         141.2264  139.4723  161.7089 O.2     1  UNL1       -0.2520
      3 C         140.3856  140.5663  161.1207 C.2     1  UNL1        0.3111
      4 N         139.0032  140.4110  160.5593 N.am    1  UNL1       -0.2606
      5 C         138.5427  141.7564  160.0822 C.3     1  UNL1        0.1169
      6 C         139.6404  142.7434  160.3486 C.3     1  UNL1        0.1212
      7 N         140.7794  142.0079  160.9904 N.am    1  UNL1       -0.2413
      8 C         142.0832  142.6085  161.4256 C.ar    1  UNL1        0.0562
      9 C         143.3658  142.1553  160.7935 C.ar    1  UNL1        0.0150
     10 C         144.6696  142.7559  161.2287 C.ar    1  UNL1        0.0021
     11 C         144.6907  143.8097  162.2959 C.ar    1  UNL1        0.0115
     12 C         143.4081  144.2629  162.9280 C.ar    1  UNL1        0.0589
     13 CL        143.4292  145.3167  163.9953 Cl      1  UNL1       -0.0822
     14 C         142.1043  143.6623  162.4929 C.ar    1  UNL1        0.0263
     15 C         137.7314  138.4820  161.7473 C.3     1  UNL1        0.0939
     16 N         138.1746  139.0034  163.0822 N.3     1  UNL1       -0.2712
     17 C         138.9859  138.1331  163.9956 C.3     1  UNL1        0.0725
     18 C         139.4291  138.6546  165.3303 C.3     1  UNL1        0.0217
     19 C         139.0611  140.0464  165.7516 C.3     1  UNL1        0.0251
     20 C         138.2498  140.9167  164.8382 C.3     1  UNL1        0.0217
     21 C         137.8066  140.3952  163.5035 C.3     1  UNL1        0.0725
     22 C         139.5043  140.5678  167.0864 C.ar    1  UNL1       -0.0224
     23 C         139.1213  139.8400  168.3408 C.ar    1  UNL1       -0.0034
     24 C         139.5645  140.3615  169.6756 C.ar    1  UNL1        0.0111
     25 C         140.3909  141.6108  169.7560 C.ar    1  UNL1        0.0577
     26 CL        140.8341  142.1322  171.0907 Cl      1  UNL1       -0.0822
     27 C         140.7740  142.3386  168.5015 C.ar    1  UNL1        0.0111
     28 C         140.3307  141.8171  167.1668 C.ar    1  UNL1       -0.0034
@<TRIPOS>BOND
     1     2     3    2
     2     3     4   am
     3     4     1    1
     4     1    15    1
     5    15    16    1
     6    16    17    1
     7    17    18    1
     8    18    19    1
     9    19    22    1
    10    22    23   ar
    11    23    24   ar
    12    24    25   ar
    13    25    26    1
    14    25    27   ar
    15    27    28   ar
    16    19    20    1
    17    20    21    1
    18     4     5    1
    19     5     6    1
    20     6     7    1
    21     7     8    1
    22     8     9   ar
    23     9    10   ar
    24    10    11   ar
    25    11    12   ar
    26    12    13    1
    27    12    14   ar
    28     7     3   am
    29    14     8   ar
    30    21    16    1
    31    28    22   ar
@<TRIPOS>MOLECULE
*****
 28 31 0 0 0
SMALL
GASTEIGER

@<TRIPOS>ATOM
      1 C         137.3410  139.7250  160.5939 C.3     1  UNL1        0.1123
      2 O         138.2411  142.8593  160.4703 O.2     1  UNL1       -0.2520
      3 C         138.7709  141.7551  159.6043 C.2     1  UNL1        0.3111
      4 N         138.3572  140.3144  159.6610 N.am    1  UNL1       -0.2606
      5 C         139.1379  139.5665  158.6212 C.3     1  UNL1        0.1169
      6 C         140.0342  140.5450  157.9218 C.3     1  UNL1        0.1212
      7 N         139.8074  141.8977  158.5293 N.am    1  UNL1       -0.2413
      8 C         140.4961  143.1695  158.1317 C.ar    1  UNL1        0.0562
      9 C         141.9856  143.2886  158.2633 C.ar    1  UNL1        0.0150
     10 C         142.6743  144.5605  157.8657 C.ar    1  UNL1        0.0021
     11 C         141.8735  145.7132  157.3366 C.ar    1  UNL1        0.0115
     12 C         140.3840  145.5941  157.2050 C.ar    1  UNL1        0.0589
     13 CL        139.5832  146.7468  156.6758 Cl      1  UNL1       -0.0822
     14 C         139.6953  144.3222  157.6026 C.ar    1  UNL1        0.0263
     15 C         137.7671  138.7394  161.6412 C.3     1  UNL1        0.0939
     16 N         138.2163  139.2234  162.9881 N.3     1  UNL1       -0.2712
     17 C         138.9276  138.2895  163.9218 C.3     1  UNL1        0.0725
     18 C         139.3768  138.7735  165.2686 C.3     1  UNL1        0.0217
     19 C         139.1146  140.1914  165.6817 C.3     1  UNL1        0.0251
     20 C         138.4032  141.1253  164.7481 C.3     1  UNL1        0.0217
     21 C         137.9541  140.6413  163.4013 C.3     1  UNL1        0.0725
     22 C         139.5638  140.6754  167.0286 C.ar    1  UNL1       -0.0224
     23 C         139.2406  139.8789  168.2579 C.ar    1  UNL1       -0.0034
     24 C         139.6898  140.3629  169.6048 C.ar    1  UNL1        0.0111
     25 C         140.4622  141.6434  169.7223 C.ar    1  UNL1        0.0577
     26 CL        140.9114  142.1274  171.0691 Cl      1  UNL1       -0.0822
     27 C         140.7854  142.4399  168.4930 C.ar    1  UNL1        0.0111
     28 C         140.3362  141.9559  167.1462 C.ar    1  UNL1       -0.0034
@<TRIPOS>BOND
     1     2     3    2
     2     3     4   am
     3     4     1    1
     4     1    15    1
     5    15    16    1
     6    16    17    1
     7    17    18    1
     8    18    19    1
     9    19    22    1
    10    22    23   ar
    11    23    24   ar
    12    24    25   ar
    13    25    26    1
    14    25    27   ar
    15    27    28   ar
    16    19    20    1
    17    20    21    1
    18     4     5    1
    19     5     6    1
    20     6     7    1
    21     7     8    1
    22     8     9   ar
    23     9    10   ar
    24    10    11   ar
    25    11    12   ar
    26    12    13    1
    27    12    14   ar
    28     7     3   am
    29    14     8   ar
    30    21    16    1
    31    28    22   ar
@<TRIPOS>MOLECULE
*****
 28 31 0 0 0
SMALL
GASTEIGER

@<TRIPOS>ATOM
      1 C         144.1288  139.1259  160.6798 C.3     1  UNL1        0.1123
      2 O         141.4004  140.8329  160.1398 O.2     1  UNL1       -0.2520
      3 C         142.6456  141.3464  160.8000 C.2     1  UNL1        0.3111
      4 N         143.8997  140.5619  161.0482 N.am    1  UNL1       -0.2606
      5 C         144.8845  141.4652  161.7295 C.3     1  UNL1        0.1169
      6 C         144.2390  142.8082  161.9023 C.3     1  UNL1        0.1212
      7 N         142.8553  142.7348  161.3279 N.am    1  UNL1       -0.2413
      8 C         141.8566  143.8533  161.2882 C.ar    1  UNL1        0.0562
      9 C         141.3064  144.4132  162.5665 C.ar    1  UNL1        0.0150
     10 C         140.3078  145.5317  162.5268 C.ar    1  UNL1        0.0021
     11 C         139.8593  146.0903  161.2090 C.ar    1  UNL1        0.0115
     12 C         140.4095  145.5304  159.9307 C.ar    1  UNL1        0.0589
     13 CL        139.9610  146.0890  158.6129 Cl      1  UNL1       -0.0822
     14 C         141.4081  144.4119  159.9704 C.ar    1  UNL1        0.0263
     15 C         143.7638  138.0367  161.6444 C.3     1  UNL1        0.0939
     16 N         143.2694  138.3851  163.0171 N.3     1  UNL1       -0.2712
     17 C         144.2157  138.9519  164.0336 C.3     1  UNL1        0.0725
     18 C         143.7213  139.3003  165.4062 C.3     1  UNL1        0.0217
     19 C         142.2807  139.0819  165.7624 C.3     1  UNL1        0.0251
     20 C         141.3344  138.5151  164.7459 C.3     1  UNL1        0.0217
     21 C         141.8288  138.1668  163.3732 C.3     1  UNL1        0.0725
     22 C         141.7863  139.4303  167.1351 C.ar    1  UNL1       -0.0224
     23 C         140.3914  139.9495  167.3205 C.ar    1  UNL1       -0.0034
     24 C         139.8970  140.2979  168.6932 C.ar    1  UNL1        0.0111
     25 C         140.7977  140.1271  169.8805 C.ar    1  UNL1        0.0577
     26 CL        140.3034  140.4754  171.2532 Cl      1  UNL1       -0.0822
     27 C         142.1927  139.6078  169.6950 C.ar    1  UNL1        0.0111
     28 C         142.6870  139.2595  168.3223 C.ar    1  UNL1       -0.0034
@<TRIPOS>BOND
     1     2     3    2
     2     3     4   am
     3     4     1    1
     4     1    15    1
     5    15    16    1
     6    16    17    1
     7    17    18    1
     8    18    19    1
     9    19    22    1
    10    22    23   ar
    11    23    24   ar
    12    24    25   ar
    13    25    26    1
    14    25    27   ar
    15    27    28   ar
    16    19    20    1
    17    20    21    1
    18     4     5    1
    19     5     6    1
    20     6     7    1
    21     7     8    1
    22     8     9   ar
    23     9    10   ar
    24    10    11   ar
    25    11    12   ar
    26    12    13    1
    27    12    14   ar
    28     7     3   am
    29    14     8   ar
    30    21    16    1
    31    28    22   ar
@<TRIPOS>MOLECULE
*****
 28 31 0 0 0
SMALL
GASTEIGER

@<TRIPOS>ATOM
      1 C         144.2962  139.7717  160.2273 C.3     1  UNL1        0.1123
      2 O         141.3153  141.0963  160.3242 O.2     1  UNL1       -0.2520
      3 C         142.5672  141.7001  160.8884 C.2     1  UNL1        0.3111
      4 N         143.9374  141.0913  160.8438 N.am    1  UNL1       -0.2606
      5 C         144.8857  142.0337  161.5240 C.3     1  UNL1        0.1169
      6 C         144.1016  143.2249  161.9890 C.3     1  UNL1        0.1212
      7 N         142.6687  143.0188  161.5961 N.am    1  UNL1       -0.2413
      8 C         141.5361  143.9651  161.8640 C.ar    1  UNL1        0.0562
      9 C         141.1177  144.9506  160.8134 C.ar    1  UNL1        0.0150
     10 C         139.9852  145.8969  161.0812 C.ar    1  UNL1        0.0021
     11 C         139.2710  145.8577  162.3997 C.ar    1  UNL1        0.0115
     12 C         139.6894  144.8723  163.4504 C.ar    1  UNL1        0.0589
     13 CL        138.9753  144.8331  164.7689 Cl      1  UNL1       -0.0822
     14 C         140.8220  143.9259  163.1825 C.ar    1  UNL1        0.0263
     15 C         144.0536  138.4996  160.9840 C.3     1  UNL1        0.0939
     16 N         142.9759  138.4405  162.0258 N.3     1  UNL1       -0.2712
     17 C         143.2564  138.9101  163.4225 C.3     1  UNL1        0.0725
     18 C         142.1787  138.8510  164.4642 C.3     1  UNL1        0.0217
     19 C         140.8206  138.3223  164.1092 C.3     1  UNL1        0.0251
     20 C         140.5402  137.8527  162.7125 C.3     1  UNL1        0.0217
     21 C         141.6178  137.9118  161.6708 C.3     1  UNL1        0.0725
     22 C         139.7430  138.2632  165.1509 C.ar    1  UNL1       -0.0224
     23 C         139.5915  139.3826  166.1377 C.ar    1  UNL1       -0.0034
     24 C         138.5139  139.3235  167.1795 C.ar    1  UNL1        0.0111
     25 C         137.5877  138.1449  167.2344 C.ar    1  UNL1        0.0577
     26 CL        136.5100  138.0858  168.2761 Cl      1  UNL1       -0.0822
     27 C         137.7391  137.0254  166.2475 C.ar    1  UNL1        0.0111
     28 C         138.8168  137.0845  165.2058 C.ar    1  UNL1       -0.0034
@<TRIPOS>BOND
     1     2     3    2
     2     3     4   am
     3     4     1    1
     4     1    15    1
     5    15    16    1
     6    16    17    1
     7    17    18    1
     8    18    19    1
     9    19    22    1
    10    22    23   ar
    11    23    24   ar
    12    24    25   ar
    13    25    26    1
    14    25    27   ar
    15    27    28   ar
    16    19    20    1
    17    20    21    1
    18     4     5    1
    19     5     6    1
    20     6     7    1
    21     7     8    1
    22     8     9   ar
    23     9    10   ar
    24    10    11   ar
    25    11    12   ar
    26    12    13    1
    27    12    14   ar
    28     7     3   am
    29    14     8   ar
    30    21    16    1
    31    28    22   ar
@<TRIPOS>MOLECULE
*****
 28 31 0 0 0
SMALL
GASTEIGER

@<TRIPOS>ATOM
      1 C         137.7146  138.5600  161.7849 C.3     1  UNL1        0.1123
      2 O         138.5540  139.5173  158.7801 O.2     1  UNL1       -0.2520
      3 C         138.3021  140.4167  159.9539 C.2     1  UNL1        0.3111
      4 N         137.9163  139.9767  161.3350 N.am    1  UNL1       -0.2606
      5 C         137.7675  141.2021  162.1873 C.3     1  UNL1        0.1169
      6 C         138.0614  142.3994  161.3329 C.3     1  UNL1        0.1212
      7 N         138.3918  141.9141  159.9525 N.am    1  UNL1       -0.2413
      8 C         138.7492  142.7749  158.7773 C.ar    1  UNL1        0.0562
      9 C         138.0242  142.6050  157.4751 C.ar    1  UNL1        0.0150
     10 C         138.3815  143.4658  156.2999 C.ar    1  UNL1        0.0021
     11 C         139.4640  144.4965  156.4267 C.ar    1  UNL1        0.0115
     12 C         140.1890  144.6664  157.7289 C.ar    1  UNL1        0.0589
     13 CL        141.2714  145.6970  157.8557 Cl      1  UNL1       -0.0822
     14 C         139.8316  143.8056  158.9041 C.ar    1  UNL1        0.0263
     15 C         138.7269  137.9051  162.6772 C.3     1  UNL1        0.0939
     16 N         139.3266  138.6705  163.8194 N.3     1  UNL1       -0.2712
     17 C         138.5087  138.9524  165.0448 C.3     1  UNL1        0.0725
     18 C         139.1084  139.7178  166.1869 C.3     1  UNL1        0.0217
     19 C         140.5260  140.2012  166.1037 C.3     1  UNL1        0.0251
     20 C         141.3438  139.9193  164.8783 C.3     1  UNL1        0.0217
     21 C         140.7441  139.1539  163.7362 C.3     1  UNL1        0.0725
     22 C         141.1256  140.9666  167.2459 C.ar    1  UNL1       -0.0224
     23 C         140.3958  142.1412  167.8270 C.ar    1  UNL1       -0.0034
     24 C         140.9955  142.9066  168.9693 C.ar    1  UNL1        0.0111
     25 C         142.3250  142.4973  169.5304 C.ar    1  UNL1        0.0577
     26 CL        142.9247  143.2626  170.6725 Cl      1  UNL1       -0.0822
     27 C         143.0549  141.3227  168.9492 C.ar    1  UNL1        0.0111
     28 C         142.4552  140.5574  167.8071 C.ar    1  UNL1       -0.0034
@<TRIPOS>BOND
     1     2     3    2
     2     3     4   am
     3     4     1    1
     4     1    15    1
     5    15    16    1
     6    16    17    1
     7    17    18    1
     8    18    19    1
     9    19    22    1
    10    22    23   ar
    11    23    24   ar
    12    24    25   ar
    13    25    26    1
    14    25    27   ar
    15    27    28   ar
    16    19    20    1
    17    20    21    1
    18     4     5    1
    19     5     6    1
    20     6     7    1
    21     7     8    1
    22     8     9   ar
    23     9    10   ar
    24    10    11   ar
    25    11    12   ar
    26    12    13    1
    27    12    14   ar
    28     7     3   am
    29    14     8   ar
    30    21    16    1
    31    28    22   ar
@<TRIPOS>MOLECULE
*****
 28 31 0 0 0
SMALL
GASTEIGER

@<TRIPOS>ATOM
      1 C         141.8800  137.9266  161.4821 C.3     1  UNL1        0.1123
      2 O         139.6870  140.3330  161.2586 O.2     1  UNL1       -0.2520
      3 C         141.1746  140.5016  161.3517 C.2     1  UNL1        0.3111
      4 N         142.1826  139.3955  161.4545 N.am    1  UNL1       -0.2606
      5 C         143.5464  140.0162  161.5247 C.3     1  UNL1        0.1169
      6 C         143.3812  141.5059  161.4653 C.3     1  UNL1        0.1212
      7 N         141.9154  141.8059  161.3585 N.am    1  UNL1       -0.2413
      8 C         141.2987  143.1706  161.2733 C.ar    1  UNL1        0.0562
      9 C         140.8832  143.8854  162.5249 C.ar    1  UNL1        0.0150
     10 C         140.2664  145.2500  162.4397 C.ar    1  UNL1        0.0021
     11 C         140.0652  145.8999  161.1029 C.ar    1  UNL1        0.0115
     12 C         140.4807  145.1852  159.8512 C.ar    1  UNL1        0.0589
     13 CL        140.2794  145.8351  158.5144 Cl      1  UNL1       -0.0822
     14 C         141.0974  143.8205  159.9364 C.ar    1  UNL1        0.0263
     15 C         141.3954  137.2844  162.7481 C.3     1  UNL1        0.0939
     16 N         141.1193  138.1266  163.9583 N.3     1  UNL1       -0.2712
     17 C         142.2357  138.4833  164.8944 C.3     1  UNL1        0.0725
     18 C         141.9595  139.3255  166.1045 C.3     1  UNL1        0.0217
     19 C         140.5670  139.8109  166.3786 C.3     1  UNL1        0.0251
     20 C         139.4506  139.4542  165.4425 C.3     1  UNL1        0.0217
     21 C         139.7267  138.6121  164.2323 C.3     1  UNL1        0.0725
     22 C         140.2909  140.6531  167.5888 C.ar    1  UNL1       -0.0224
     23 C         140.7704  142.0735  167.6393 C.ar    1  UNL1       -0.0034
     24 C         140.4942  142.9157  168.8496 C.ar    1  UNL1        0.0111
     25 C         139.7386  142.3375  170.0092 C.ar    1  UNL1        0.0577
     26 CL        139.4625  143.1796  171.2193 Cl      1  UNL1       -0.0822
     27 C         139.2591  140.9170  169.9586 C.ar    1  UNL1        0.0111
     28 C         139.5352  140.0749  168.7484 C.ar    1  UNL1       -0.0034
@<TRIPOS>BOND
     1     2     3    2
     2     3     4   am
     3     4     1    1
     4     1    15    1
     5    15    16    1
     6    16    17    1
     7    17    18    1
     8    18    19    1
     9    19    22    1
    10    22    23   ar
    11    23    24   ar
    12    24    25   ar
    13    25    26    1
    14    25    27   ar
    15    27    28   ar
    16    19    20    1
    17    20    21    1
    18     4     5    1
    19     5     6    1
    20     6     7    1
    21     7     8    1
    22     8     9   ar
    23     9    10   ar
    24    10    11   ar
    25    11    12   ar
    26    12    13    1
    27    12    14   ar
    28     7     3   am
    29    14     8   ar
    30    21    16    1
    31    28    22   ar
