@<TRIPOS>MOLECULE
*****
 33 36 0 0 0
SMALL
GASTEIGER

@<TRIPOS>ATOM
      1 N         143.5970  139.8990  161.6806 N.3     1  UNL1       -0.2727
      2 C         142.3409  140.6798  161.4308 C.3     1  UNL1        0.0725
      3 C         141.4316  140.2962  160.3012 C.3     1  UNL1        0.0232
      4 C         141.7784  139.1318  159.4214 C.3     1  UNL1        0.0430
      5 C         143.0346  138.3511  159.6712 C.3     1  UNL1        0.0232
      6 C         143.9439  138.7347  160.8008 C.3     1  UNL1        0.0725
      7 C         141.9927  137.9978  158.4632 C.3     1  UNL1        0.1053
      8 N         140.8418  137.9800  157.5013 N.am    1  UNL1       -0.2280
      9 C         140.6502  137.0096  156.3736 C.2     1  UNL1        0.3120
     10 O         139.4431  137.1159  155.4897 O.2     1  UNL1       -0.2520
     11 N         141.6657  135.9328  156.1300 N.am    1  UNL1       -0.2638
     12 C         139.9163  139.1030  157.8650 C.ar    1  UNL1        0.1345
     13 N         138.6212  139.5694  157.2689 N.ar    1  UNL1       -0.2291
     14 C         137.9050  140.7476  157.8595 C.ar    1  UNL1        0.1003
     15 C         138.4838  141.4595  159.0462 C.ar    1  UNL1        0.0204
     16 C         139.7789  140.9931  159.6423 C.ar    1  UNL1        0.0001
     17 C         140.4951  139.8149  159.0517 C.ar    1  UNL1        0.0109
     18 C         141.4740  134.9624  155.0024 C.3     1  UNL1        0.0950
     19 C         142.2689  135.1139  153.7394 C.3     1  UNL1        0.0233
     20 C         142.8729  135.8265  157.0141 C.3     1  UNL1        0.0950
     21 C         143.4385  134.4790  157.3523 C.3     1  UNL1        0.0233
     22 C         144.5064  140.2826  162.8102 C.3     1  UNL1        0.0722
     23 C         142.3395  140.7268  168.3875 C.2     1  UNL1        0.4049
     24 O         142.0297  139.4869  169.1728 O.2     1  UNL1       -0.2262
     25 N         142.8812  140.6158  166.9932 N.am    1  UNL1       -0.2460
     26 C         143.1910  141.8557  166.2080 C.3     1  UNL1        0.0968
     27 C         143.7328  141.7447  164.8136 C.3     1  UNL1        0.0231
     28 C         143.9647  140.3937  164.2045 C.3     1  UNL1        0.0194
     29 C         143.6548  139.1537  164.9898 C.3     1  UNL1        0.0231
     30 C         143.1131  139.2648  166.3841 C.3     1  UNL1        0.0968
     31 O         142.1076  142.0778  168.9967 O.3     1  UNL1       -0.4345
     32 C         140.4353  143.8793  169.8382 C.3     1  UNL1        0.0513
     33 C         140.7320  142.6759  168.9933 C.3     1  UNL1        0.2102
@<TRIPOS>BOND
     1    32    33    1
     2    33    31    1
     3    31    23    1
     4    23    24    2
     5    23    25   am
     6    25    26    1
     7    26    27    1
     8    27    28    1
     9    28    22    1
    10    22     1    1
    11     1     2    1
    12     2     3    1
    13     3     4    1
    14     4     5    1
    15     5     6    1
    16     4     7    1
    17     7     8    1
    18     8     9   am
    19     9    10    2
    20     9    11   am
    21    11    18    1
    22    18    19    1
    23    11    20    1
    24    20    21    1
    25     8    12    1
    26    12    13   ar
    27    13    14   ar
    28    14    15   ar
    29    15    16   ar
    30    16    17   ar
    31    28    29    1
    32    29    30    1
    33    30    25    1
    34     6     1    1
    35    17    12   ar
    36    17     4    1
@<TRIPOS>MOLECULE
*****
 33 36 0 0 0
SMALL
GASTEIGER

@<TRIPOS>ATOM
      1 N         142.5145  139.1980  158.4318 N.3     1  UNL1       -0.2727
      2 C         143.6443  139.8926  159.1325 C.3     1  UNL1        0.0725
      3 C         143.4991  140.2990  160.5691 C.3     1  UNL1        0.0232
      4 C         142.2242  140.0108  161.3049 C.3     1  UNL1        0.0430
      5 C         141.0944  139.3162  160.6041 C.3     1  UNL1        0.0232
      6 C         141.2396  138.9098  159.1676 C.3     1  UNL1        0.0725
      7 C         141.0156  139.7906  162.1657 C.3     1  UNL1        0.1053
      8 N         141.3066  140.3525  163.5258 N.am    1  UNL1       -0.2280
      9 C         140.3731  140.3477  164.6999 C.2     1  UNL1        0.3120
     10 O         140.8051  140.9498  166.0039 O.2     1  UNL1       -0.2520
     11 N         139.0075  139.7409  164.5698 N.am    1  UNL1       -0.2638
     12 C         142.6950  140.9199  163.5055 C.ar    1  UNL1        0.1345
     13 N         143.5161  141.6016  164.5595 N.ar    1  UNL1       -0.2291
     14 C         144.9043  142.0722  164.2411 C.ar    1  UNL1        0.1003
     15 C         145.4715  141.8610  162.8685 C.ar    1  UNL1        0.0204
     16 C         144.6503  141.1793  161.8145 C.ar    1  UNL1        0.0001
     17 C         143.2621  140.7088  162.1330 C.ar    1  UNL1        0.0109
     18 C         138.0740  139.7362  165.7439 C.3     1  UNL1        0.0950
     19 C         138.0448  138.5597  166.6740 C.3     1  UNL1        0.0233
     20 C         138.5754  139.1388  163.2656 C.3     1  UNL1        0.0950
     21 C         138.5740  137.6490  163.0912 C.3     1  UNL1        0.0233
     22 C         142.6597  138.7916  156.9952 C.3     1  UNL1        0.0722
     23 C         141.8015  133.0733  155.3937 C.2     1  UNL1        0.4049
     24 O         140.8680  132.7419  154.2672 O.2     1  UNL1       -0.2262
     25 N         142.0160  134.5029  155.7940 N.am    1  UNL1       -0.2460
     26 C         142.9494  134.8342  156.9205 C.3     1  UNL1        0.0968
     27 C         143.1640  136.2638  157.3209 C.3     1  UNL1        0.0231
     28 C         142.4451  137.3620  156.5948 C.3     1  UNL1        0.0194
     29 C         141.5117  137.0306  155.4683 C.3     1  UNL1        0.0231
     30 C         141.2971  135.6011  155.0680 C.3     1  UNL1        0.0968
     31 O         142.5203  131.9751  156.1198 O.3     1  UNL1       -0.4345
     32 C         145.0865  131.6606  156.3768 C.3     1  UNL1        0.0513
     33 C         143.8248  131.4556  155.5919 C.3     1  UNL1        0.2102
@<TRIPOS>BOND
     1    32    33    1
     2    33    31    1
     3    31    23    1
     4    23    24    2
     5    23    25   am
     6    25    26    1
     7    26    27    1
     8    27    28    1
     9    28    22    1
    10    22     1    1
    11     1     2    1
    12     2     3    1
    13     3     4    1
    14     4     5    1
    15     5     6    1
    16     4     7    1
    17     7     8    1
    18     8     9   am
    19     9    10    2
    20     9    11   am
    21    11    18    1
    22    18    19    1
    23    11    20    1
    24    20    21    1
    25     8    12    1
    26    12    13   ar
    27    13    14   ar
    28    14    15   ar
    29    15    16   ar
    30    16    17   ar
    31    28    29    1
    32    29    30    1
    33    30    25    1
    34     6     1    1
    35    17    12   ar
    36    17     4    1
@<TRIPOS>MOLECULE
*****
 33 36 0 0 0
SMALL
GASTEIGER

@<TRIPOS>ATOM
      1 N         139.7237  138.7668  162.7608 N.3     1  UNL1       -0.2727
      2 C         140.4732  137.9939  161.7164 C.3     1  UNL1        0.0725
      3 C         141.0127  138.6969  160.5062 C.3     1  UNL1        0.0232
      4 C         140.8026  140.1729  160.3404 C.3     1  UNL1        0.0430
      5 C         140.0532  140.9458  161.3848 C.3     1  UNL1        0.0232
      6 C         139.5137  140.2428  162.5950 C.3     1  UNL1        0.0725
      7 C         140.6715  141.6365  160.0394 C.3     1  UNL1        0.1053
      8 N         141.3558  141.9040  158.7315 N.am    1  UNL1       -0.2280
      9 C         141.4667  143.2359  158.0506 C.2     1  UNL1        0.3120
     10 O         142.1848  143.3500  156.7387 O.2     1  UNL1       -0.2520
     11 N         140.8593  144.4536  158.6816 N.am    1  UNL1       -0.2638
     12 C         141.9098  140.6055  158.2243 C.ar    1  UNL1        0.1345
     13 N         142.6814  140.2592  156.9855 N.ar    1  UNL1       -0.2291
     14 C         143.1111  138.8431  156.7409 C.ar    1  UNL1        0.1003
     15 C         142.7693  137.7732  157.7352 C.ar    1  UNL1        0.0204
     16 C         141.9977  138.1195  158.9740 C.ar    1  UNL1        0.0001
     17 C         141.5680  139.5357  159.2185 C.ar    1  UNL1        0.0109
     18 C         140.9701  145.7855  158.0007 C.3     1  UNL1        0.0950
     19 C         139.9997  146.1580  156.9192 C.3     1  UNL1        0.0233
     20 C         140.1411  144.3395  159.9936 C.3     1  UNL1        0.0950
     21 C         140.3276  145.3931  161.0448 C.3     1  UNL1        0.0233
     22 C         139.1842  138.0638  163.9711 C.3     1  UNL1        0.0722
     23 C         139.7202  140.5816  169.3908 C.2     1  UNL1        0.4049
     24 O         138.5436  140.6180  170.3206 O.2     1  UNL1       -0.2262
     25 N         139.5862  139.9522  168.0359 N.am    1  UNL1       -0.2460
     26 C         140.7627  139.9158  167.1062 C.3     1  UNL1        0.0968
     27 C         140.6288  139.2863  165.7512 C.3     1  UNL1        0.0231
     28 C         139.3182  138.6932  165.3260 C.3     1  UNL1        0.0194
     29 C         138.1417  138.7296  166.2558 C.3     1  UNL1        0.0231
     30 C         138.2757  139.3591  167.6107 C.3     1  UNL1        0.0968
     31 O         141.0307  141.1747  169.8160 O.3     1  UNL1       -0.4345
     32 C         140.4542  143.7081  169.8198 C.3     1  UNL1        0.0513
     33 C         141.3732  142.5855  169.4384 C.3     1  UNL1        0.2102
@<TRIPOS>BOND
     1    32    33    1
     2    33    31    1
     3    31    23    1
     4    23    24    2
     5    23    25   am
     6    25    26    1
     7    26    27    1
     8    27    28    1
     9    28    22    1
    10    22     1    1
    11     1     2    1
    12     2     3    1
    13     3     4    1
    14     4     5    1
    15     5     6    1
    16     4     7    1
    17     7     8    1
    18     8     9   am
    19     9    10    2
    20     9    11   am
    21    11    18    1
    22    18    19    1
    23    11    20    1
    24    20    21    1
    25     8    12    1
    26    12    13   ar
    27    13    14   ar
    28    14    15   ar
    29    15    16   ar
    30    16    17   ar
    31    28    29    1
    32    29    30    1
    33    30    25    1
    34     6     1    1
    35    17    12   ar
    36    17     4    1
@<TRIPOS>MOLECULE
*****
 33 36 0 0 0
SMALL
GASTEIGER

@<TRIPOS>ATOM
      1 N         140.3742  140.3572  159.9986 N.3     1  UNL1       -0.2727
      2 C         141.3491  141.4891  160.1340 C.3     1  UNL1        0.0725
      3 C         141.7846  141.9451  161.4949 C.3     1  UNL1        0.0232
      4 C         141.2452  141.2692  162.7206 C.3     1  UNL1        0.0430
      5 C         140.2702  140.1373  162.5853 C.3     1  UNL1        0.0232
      6 C         139.8347  139.6814  161.2243 C.3     1  UNL1        0.0725
      7 C         140.7938  140.6929  164.0299 C.3     1  UNL1        0.1053
      8 N         141.4782  141.4491  165.1298 N.am    1  UNL1       -0.2280
      9 C         141.3167  141.2046  166.6009 C.2     1  UNL1        0.3120
     10 O         142.0701  142.0456  167.5882 O.2     1  UNL1       -0.2520
     11 N         140.4016  140.1189  167.0846 N.am    1  UNL1       -0.2638
     12 C         142.3526  142.4928  164.5003 C.ar    1  UNL1        0.1345
     13 N         143.2613  143.5301  165.0905 N.ar    1  UNL1       -0.2291
     14 C         144.0259  144.4561  164.1918 C.ar    1  UNL1        0.1003
     15 C         143.8819  144.3450  162.7028 C.ar    1  UNL1        0.0204
     16 C         142.9732  143.3077  162.1127 C.ar    1  UNL1        0.0001
     17 C         142.2085  142.3817  163.0114 C.ar    1  UNL1        0.0109
     18 C         140.2400  139.8744  168.5557 C.3     1  UNL1        0.0950
     19 C         139.3912  140.7960  169.3804 C.3     1  UNL1        0.0233
     20 C         139.6481  139.2778  166.0973 C.3     1  UNL1        0.0950
     21 C         138.1857  139.0124  166.2999 C.3     1  UNL1        0.0233
     22 C         139.9386  139.9012  158.6376 C.3     1  UNL1        0.0722
     23 C         142.5509  135.1375  156.0913 C.2     1  UNL1        0.4049
     24 O         141.8822  134.4392  154.9444 O.2     1  UNL1       -0.2262
     25 N         141.8978  136.3284  156.7279 N.am    1  UNL1       -0.2460
     26 C         142.5665  137.0267  157.8747 C.3     1  UNL1        0.0968
     27 C         141.9134  138.2177  158.5113 C.3     1  UNL1        0.0231
     28 C         140.5917  138.7103  158.0010 C.3     1  UNL1        0.0194
     29 C         139.9230  138.0119  156.8541 C.3     1  UNL1        0.0231
     30 C         140.5761  136.8210  156.2176 C.3     1  UNL1        0.0968
     31 O         143.8726  134.6449  156.6016 O.3     1  UNL1       -0.4345
     32 C         145.0162  132.6215  157.7626 C.3     1  UNL1        0.0513
     33 C         143.9198  133.6442  157.7180 C.3     1  UNL1        0.2102
@<TRIPOS>BOND
     1    32    33    1
     2    33    31    1
     3    31    23    1
     4    23    24    2
     5    23    25   am
     6    25    26    1
     7    26    27    1
     8    27    28    1
     9    28    22    1
    10    22     1    1
    11     1     2    1
    12     2     3    1
    13     3     4    1
    14     4     5    1
    15     5     6    1
    16     4     7    1
    17     7     8    1
    18     8     9   am
    19     9    10    2
    20     9    11   am
    21    11    18    1
    22    18    19    1
    23    11    20    1
    24    20    21    1
    25     8    12    1
    26    12    13   ar
    27    13    14   ar
    28    14    15   ar
    29    15    16   ar
    30    16    17   ar
    31    28    29    1
    32    29    30    1
    33    30    25    1
    34     6     1    1
    35    17    12   ar
    36    17     4    1
@<TRIPOS>MOLECULE
*****
 33 36 0 0 0
SMALL
GASTEIGER

@<TRIPOS>ATOM
      1 N         139.7894  139.3204  162.8597 N.3     1  UNL1       -0.2727
      2 C         139.5071  140.7932  162.8877 C.3     1  UNL1        0.0725
      3 C         140.0681  141.6848  161.8199 C.3     1  UNL1        0.0232
      4 C         140.9114  141.1035  160.7240 C.3     1  UNL1        0.0430
      5 C         141.1937  139.6306  160.6960 C.3     1  UNL1        0.0232
      6 C         140.6327  138.7390  161.7638 C.3     1  UNL1        0.0725
      7 C         141.7670  140.6680  159.5714 C.3     1  UNL1        0.1053
      8 N         142.0998  141.8826  158.7563 N.am    1  UNL1       -0.2280
      9 C         142.9356  141.9068  157.5110 C.2     1  UNL1        0.3120
     10 O         143.1838  143.2036  156.7994 O.2     1  UNL1       -0.2520
     11 N         143.5233  140.6340  156.9774 N.am    1  UNL1       -0.2638
     12 C         141.4498  143.0686  159.4052 C.ar    1  UNL1        0.1345
     13 N         141.4319  144.5248  159.0458 N.ar    1  UNL1       -0.2291
     14 C         140.6796  145.4995  159.9024 C.ar    1  UNL1        0.1003
     15 C         139.9452  145.0181  161.1186 C.ar    1  UNL1        0.0204
     16 C         139.9631  143.5619  161.4779 C.ar    1  UNL1        0.0001
     17 C         140.7154  142.5871  160.6212 C.ar    1  UNL1        0.0109
     18 C         144.3592  140.6582  155.7321 C.3     1  UNL1        0.0950
     19 C         145.8476  140.8157  155.8309 C.3     1  UNL1        0.0233
     20 C         143.2751  139.3371  157.6890 C.3     1  UNL1        0.0950
     21 C         142.8265  138.1318  156.9170 C.3     1  UNL1        0.0233
     22 C         139.2283  138.4287  163.9275 C.3     1  UNL1        0.0722
     23 C         139.2056  140.2446  169.6461 C.2     1  UNL1        0.4049
     24 O         138.0079  139.9842  170.5110 O.2     1  UNL1       -0.2262
     25 N         139.2112  139.7906  168.2165 N.am    1  UNL1       -0.2460
     26 C         140.4088  140.0510  167.3517 C.3     1  UNL1        0.0968
     27 C         140.4145  139.5971  165.9220 C.3     1  UNL1        0.0231
     28 C         139.2226  138.8827  165.3571 C.3     1  UNL1        0.0194
     29 C         138.0250  138.6222  166.2220 C.3     1  UNL1        0.0231
     30 C         138.0193  139.0762  167.6516 C.3     1  UNL1        0.0968
     31 O         140.3975  140.9590  170.2109 O.3     1  UNL1       -0.4345
     32 C         140.3681  143.3911  169.2976 C.3     1  UNL1        0.0513
     33 C         140.3391  142.4378  170.4554 C.3     1  UNL1        0.2102
@<TRIPOS>BOND
     1    32    33    1
     2    33    31    1
     3    31    23    1
     4    23    24    2
     5    23    25   am
     6    25    26    1
     7    26    27    1
     8    27    28    1
     9    28    22    1
    10    22     1    1
    11     1     2    1
    12     2     3    1
    13     3     4    1
    14     4     5    1
    15     5     6    1
    16     4     7    1
    17     7     8    1
    18     8     9   am
    19     9    10    2
    20     9    11   am
    21    11    18    1
    22    18    19    1
    23    11    20    1
    24    20    21    1
    25     8    12    1
    26    12    13   ar
    27    13    14   ar
    28    14    15   ar
    29    15    16   ar
    30    16    17   ar
    31    28    29    1
    32    29    30    1
    33    30    25    1
    34     6     1    1
    35    17    12   ar
    36    17     4    1
@<TRIPOS>MOLECULE
*****
 33 36 0 0 0
SMALL
GASTEIGER

@<TRIPOS>ATOM
      1 N         142.4973  138.8565  158.1771 N.3     1  UNL1       -0.2727
      2 C         143.6052  139.6496  158.8043 C.3     1  UNL1        0.0725
      3 C         143.4566  140.1687  160.2038 C.3     1  UNL1        0.0232
      4 C         142.2003  139.8946  160.9760 C.3     1  UNL1        0.0430
      5 C         141.0924  139.1014  160.3488 C.3     1  UNL1        0.0232
      6 C         141.2409  138.5823  158.9494 C.3     1  UNL1        0.0725
      7 C         141.0087  139.7012  161.8663 C.3     1  UNL1        0.1053
      8 N         141.2892  140.3853  163.1715 N.am    1  UNL1       -0.2280
      9 C         140.3668  140.4430  164.3529 C.2     1  UNL1        0.3120
     10 O         140.7863  141.1678  165.5973 O.2     1  UNL1       -0.2520
     11 N         139.0248  139.7759  164.2899 N.am    1  UNL1       -0.2638
     12 C         142.6543  141.0015  163.0877 C.ar    1  UNL1        0.1345
     13 N         143.4573  141.7996  164.0717 N.ar    1  UNL1       -0.2291
     14 C         144.8233  142.2944  163.6989 C.ar    1  UNL1        0.1003
     15 C         145.3864  141.9912  162.3420 C.ar    1  UNL1        0.0204
     16 C         144.5834  141.1931  161.3580 C.ar    1  UNL1        0.0001
     17 C         143.2173  140.6983  161.7309 C.ar    1  UNL1        0.0109
     18 C         138.1023  139.8337  165.4712 C.3     1  UNL1        0.0950
     19 C         138.2183  138.8126  166.5639 C.3     1  UNL1        0.0233
     20 C         138.6052  139.0511  163.0454 C.3     1  UNL1        0.0950
     21 C         138.5419  137.5525  163.0356 C.3     1  UNL1        0.0233
     22 C         142.6457  138.3373  156.7776 C.3     1  UNL1        0.0722
     23 C         141.8960  132.4920  155.6507 C.2     1  UNL1        0.4049
     24 O         142.6611  131.4717  156.4406 O.2     1  UNL1       -0.2262
     25 N         142.0835  133.9533  155.9325 N.am    1  UNL1       -0.2460
     26 C         141.3185  134.9735  155.1426 C.3     1  UNL1        0.0968
     27 C         141.5059  136.4349  155.4243 C.3     1  UNL1        0.0231
     28 C         142.4583  136.8760  156.4959 C.3     1  UNL1        0.0194
     29 C         143.2233  135.8557  157.2858 C.3     1  UNL1        0.0231
     30 C         143.0359  134.3944  157.0041 C.3     1  UNL1        0.0968
     31 O         140.9436  132.0509  154.5791 O.3     1  UNL1       -0.4345
     32 C         142.1131  132.1264  152.2604 C.3     1  UNL1        0.0513
     33 C         141.4602  131.3440  153.3611 C.3     1  UNL1        0.2102
@<TRIPOS>BOND
     1    32    33    1
     2    33    31    1
     3    31    23    1
     4    23    24    2
     5    23    25   am
     6    25    26    1
     7    26    27    1
     8    27    28    1
     9    28    22    1
    10    22     1    1
    11     1     2    1
    12     2     3    1
    13     3     4    1
    14     4     5    1
    15     5     6    1
    16     4     7    1
    17     7     8    1
    18     8     9   am
    19     9    10    2
    20     9    11   am
    21    11    18    1
    22    18    19    1
    23    11    20    1
    24    20    21    1
    25     8    12    1
    26    12    13   ar
    27    13    14   ar
    28    14    15   ar
    29    15    16   ar
    30    16    17   ar
    31    28    29    1
    32    29    30    1
    33    30    25    1
    34     6     1    1
    35    17    12   ar
    36    17     4    1
@<TRIPOS>MOLECULE
*****
 33 36 0 0 0
SMALL
GASTEIGER

@<TRIPOS>ATOM
      1 N         143.8227  142.2557  163.8964 N.3     1  UNL1       -0.2727
      2 C         144.2285  142.6602  165.2826 C.3     1  UNL1        0.0725
      3 C         143.3966  142.2437  166.4592 C.3     1  UNL1        0.0232
      4 C         142.1589  141.4227  166.2495 C.3     1  UNL1        0.0430
      5 C         141.7531  141.0182  164.8633 C.3     1  UNL1        0.0232
      6 C         142.5850  141.4347  163.6868 C.3     1  UNL1        0.0725
      7 C         140.9022  140.6054  166.1957 C.3     1  UNL1        0.1053
      8 N         140.4042  140.4279  167.5995 N.am    1  UNL1       -0.2280
      9 C         139.1734  139.6751  168.0098 C.2     1  UNL1        0.3120
     10 O         138.7993  139.5823  169.4594 O.2     1  UNL1       -0.2520
     11 N         138.3167  139.0150  166.9705 N.am    1  UNL1       -0.2638
     12 C         141.3531  141.1355  168.5209 C.ar    1  UNL1        0.1345
     13 N         141.3698  141.2994  170.0118 N.ar    1  UNL1       -0.2291
     14 C         142.4709  142.0780  170.6684 C.ar    1  UNL1        0.1003
     15 C         143.5554  142.6929  169.8342 C.ar    1  UNL1        0.0204
     16 C         143.5387  142.5289  168.3433 C.ar    1  UNL1        0.0001
     17 C         142.4375  141.7503  167.6866 C.ar    1  UNL1        0.0109
     18 C         137.0859  138.2621  167.3808 C.3     1  UNL1        0.0950
     19 C         137.0624  136.7643  167.3036 C.3     1  UNL1        0.0233
     20 C         138.6907  139.1077  165.5208 C.3     1  UNL1        0.0950
     21 C         139.1612  137.8864  164.7880 C.3     1  UNL1        0.0233
     22 C         144.6547  142.6722  162.7197 C.3     1  UNL1        0.0722
     23 C         143.7083  140.1808  157.3442 C.2     1  UNL1        0.4049
     24 O         143.6615  138.6878  157.2072 O.2     1  UNL1       -0.2262
     25 N         143.9449  140.8037  158.6881 N.am    1  UNL1       -0.2460
     26 C         143.9916  142.2966  158.8250 C.3     1  UNL1        0.0968
     27 C         144.2282  142.9196  160.1689 C.3     1  UNL1        0.0231
     28 C         144.4181  142.0494  161.3759 C.3     1  UNL1        0.0194
     29 C         144.3713  140.5564  161.2389 C.3     1  UNL1        0.0231
     30 C         144.1347  139.9335  159.8950 C.3     1  UNL1        0.0968
     31 O         143.5184  141.0510  156.1372 O.3     1  UNL1       -0.4345
     32 C         145.8774  140.5133  155.1907 C.3     1  UNL1        0.0513
     33 C         144.6998  141.4363  155.2971 C.3     1  UNL1        0.2102
@<TRIPOS>BOND
     1    32    33    1
     2    33    31    1
     3    31    23    1
     4    23    24    2
     5    23    25   am
     6    25    26    1
     7    26    27    1
     8    27    28    1
     9    28    22    1
    10    22     1    1
    11     1     2    1
    12     2     3    1
    13     3     4    1
    14     4     5    1
    15     5     6    1
    16     4     7    1
    17     7     8    1
    18     8     9   am
    19     9    10    2
    20     9    11   am
    21    11    18    1
    22    18    19    1
    23    11    20    1
    24    20    21    1
    25     8    12    1
    26    12    13   ar
    27    13    14   ar
    28    14    15   ar
    29    15    16   ar
    30    16    17   ar
    31    28    29    1
    32    29    30    1
    33    30    25    1
    34     6     1    1
    35    17    12   ar
    36    17     4    1
@<TRIPOS>MOLECULE
*****
 33 36 0 0 0
SMALL
GASTEIGER

@<TRIPOS>ATOM
      1 N         140.7541  140.3520  157.6272 N.3     1  UNL1       -0.2727
      2 C         140.8059  141.8368  157.8336 C.3     1  UNL1        0.0725
      3 C         140.4346  142.4224  159.1636 C.3     1  UNL1        0.0232
      4 C         140.0115  141.5233  160.2873 C.3     1  UNL1        0.0430
      5 C         139.9597  140.0385  160.0809 C.3     1  UNL1        0.0232
      6 C         140.3310  139.4529  158.7508 C.3     1  UNL1        0.0725
      7 C         139.5715  140.7541  161.4975 C.3     1  UNL1        0.1053
      8 N         139.3031  141.7365  162.5989 N.am    1  UNL1       -0.2280
      9 C         138.8415  141.4013  163.9862 C.2     1  UNL1        0.3120
     10 O         138.6139  142.4961  164.9858 O.2     1  UNL1       -0.2520
     11 N         138.6077  139.9713  164.3738 N.am    1  UNL1       -0.2638
     12 C         139.5773  143.1129  162.0693 C.ar    1  UNL1        0.1345
     13 N         139.4848  144.4691  162.7034 N.ar    1  UNL1       -0.2291
     14 C         139.8302  145.6936  161.9089 C.ar    1  UNL1        0.1003
     15 C         140.2681  145.5619  160.4802 C.ar    1  UNL1        0.0204
     16 C         140.3605  144.2057  159.8462 C.ar    1  UNL1        0.0001
     17 C         140.0151  142.9812  160.6407 C.ar    1  UNL1        0.0109
     18 C         138.1461  139.6361  165.7611 C.3     1  UNL1        0.0950
     19 C         139.1310  139.6049  166.8921 C.3     1  UNL1        0.0233
     20 C         138.8353  138.8764  163.3741 C.3     1  UNL1        0.0950
     21 C         139.6565  137.6781  163.7481 C.3     1  UNL1        0.0233
     22 C         141.1254  139.7662  156.2971 C.3     1  UNL1        0.0722
     23 C         142.7075  133.9924  155.8980 C.2     1  UNL1        0.4049
     24 O         141.7014  132.9671  155.4658 O.2     1  UNL1       -0.2262
     25 N         142.3120  135.4358  155.9978 N.am    1  UNL1       -0.2460
     26 C         143.3180  136.4610  156.4300 C.3     1  UNL1        0.0968
     27 C         142.9225  137.9045  156.5297 C.3     1  UNL1        0.0231
     28 C         141.5209  138.3228  156.1973 C.3     1  UNL1        0.0194
     29 C         140.5148  137.2976  155.7651 C.3     1  UNL1        0.0231
     30 C         140.9103  135.8541  155.6654 C.3     1  UNL1        0.0968
     31 O         144.1091  133.5741  156.2305 O.3     1  UNL1       -0.4345
     32 C         144.5976  131.4553  157.6525 C.3     1  UNL1        0.0513
     33 C         144.4080  132.9402  157.5567 C.3     1  UNL1        0.2102
@<TRIPOS>BOND
     1    32    33    1
     2    33    31    1
     3    31    23    1
     4    23    24    2
     5    23    25   am
     6    25    26    1
     7    26    27    1
     8    27    28    1
     9    28    22    1
    10    22     1    1
    11     1     2    1
    12     2     3    1
    13     3     4    1
    14     4     5    1
    15     5     6    1
    16     4     7    1
    17     7     8    1
    18     8     9   am
    19     9    10    2
    20     9    11   am
    21    11    18    1
    22    18    19    1
    23    11    20    1
    24    20    21    1
    25     8    12    1
    26    12    13   ar
    27    13    14   ar
    28    14    15   ar
    29    15    16   ar
    30    16    17   ar
    31    28    29    1
    32    29    30    1
    33    30    25    1
    34     6     1    1
    35    17    12   ar
    36    17     4    1
@<TRIPOS>MOLECULE
*****
 33 36 0 0 0
SMALL
GASTEIGER

@<TRIPOS>ATOM
      1 N         136.1348  141.3154  155.5249 N.3     1  UNL1       -0.2727
      2 C         136.7463  142.4484  154.7553 C.3     1  UNL1        0.0725
      3 C         137.7929  143.3113  155.3956 C.3     1  UNL1        0.0232
      4 C         138.2280  143.0412  156.8054 C.3     1  UNL1        0.0430
      5 C         137.6165  141.9081  157.5750 C.3     1  UNL1        0.0232
      6 C         136.5699  141.0453  156.9347 C.3     1  UNL1        0.0725
      7 C         138.7608  142.8930  158.1998 C.3     1  UNL1        0.1053
      8 N         139.7878  143.9640  158.4199 N.am    1  UNL1       -0.2280
      9 C         140.5746  144.1860  159.6775 C.2     1  UNL1        0.3120
     10 O         141.5722  145.3037  159.7506 O.2     1  UNL1       -0.2520
     11 N         140.3639  143.2901  160.8620 N.am    1  UNL1       -0.2638
     12 C         139.8896  144.7742  157.1616 C.ar    1  UNL1        0.1345
     13 N         140.7355  145.9575  156.7954 N.ar    1  UNL1       -0.2291
     14 C         140.6175  146.5705  155.4315 C.ar    1  UNL1        0.1003
     15 C         139.6536  146.0002  154.4337 C.ar    1  UNL1        0.0204
     16 C         138.8077  144.8168  154.7999 C.ar    1  UNL1        0.0001
     17 C         138.9257  144.2038  156.1638 C.ar    1  UNL1        0.0109
     18 C         141.1508  143.5120  162.1196 C.3     1  UNL1        0.0950
     19 C         140.7297  144.5756  163.0899 C.3     1  UNL1        0.0233
     20 C         139.3664  142.1722  160.7888 C.3     1  UNL1        0.0950
     21 C         138.1562  142.1878  161.6749 C.3     1  UNL1        0.0233
     22 C         135.0882  140.4524  154.8846 C.3     1  UNL1        0.0722
     23 C         130.0260  139.1815  157.8442 C.2     1  UNL1        0.4049
     24 O         129.9456  137.9515  158.6990 O.2     1  UNL1       -0.2262
     25 N         131.2915  139.4992  157.1043 N.am    1  UNL1       -0.2460
     26 C         131.3719  140.7292  156.2495 C.3     1  UNL1        0.0968
     27 C         132.6375  141.0470  155.5096 C.3     1  UNL1        0.0231
     28 C         133.8226  140.1347  155.6245 C.3     1  UNL1        0.0194
     29 C         133.7422  138.9047  156.4793 C.3     1  UNL1        0.0231
     30 C         132.4767  138.5870  157.2192 C.3     1  UNL1        0.0968
     31 O         128.8409  140.0938  157.7293 O.3     1  UNL1       -0.4345
     32 C         127.7719  140.3791  160.0801 C.3     1  UNL1        0.0513
     33 C         127.6719  139.9248  158.6540 C.3     1  UNL1        0.2102
@<TRIPOS>BOND
     1    32    33    1
     2    33    31    1
     3    31    23    1
     4    23    24    2
     5    23    25   am
     6    25    26    1
     7    26    27    1
     8    27    28    1
     9    28    22    1
    10    22     1    1
    11     1     2    1
    12     2     3    1
    13     3     4    1
    14     4     5    1
    15     5     6    1
    16     4     7    1
    17     7     8    1
    18     8     9   am
    19     9    10    2
    20     9    11   am
    21    11    18    1
    22    18    19    1
    23    11    20    1
    24    20    21    1
    25     8    12    1
    26    12    13   ar
    27    13    14   ar
    28    14    15   ar
    29    15    16   ar
    30    16    17   ar
    31    28    29    1
    32    29    30    1
    33    30    25    1
    34     6     1    1
    35    17    12   ar
    36    17     4    1
