@<TRIPOS>MOLECULE
*****
 30 32 0 0 0
SMALL
GASTEIGER

@<TRIPOS>ATOM
      1 C         143.4660  138.4079  162.3692 C.3     1  UNL1        0.0327
      2 C         142.7525  138.7800  163.6351 C.ar    1  UNL1       -0.0013
      3 C         143.5053  138.8382  164.9311 C.ar    1  UNL1        0.0946
      4 N         142.7918  139.2103  166.1970 N.ar    1  UNL1       -0.2425
      5 C         141.3253  139.5243  166.1668 C.ar    1  UNL1        0.1028
      6 C         140.3609  139.9189  167.2457 C.ar    1  UNL1        0.0895
      7 C         139.0120  140.1047  166.6165 C.ar    1  UNL1        0.0823
      8 N         139.1427  139.8248  165.1487 N.ar    1  UNL1       -0.3190
      9 C         140.5725  139.4661  164.8708 C.ar    1  UNL1        0.0780
     10 C         141.2860  139.0940  163.6049 C.ar    1  UNL1        0.0160
     11 C         140.6881  140.0966  168.6988 C.2     1  UNL1        0.2489
     12 O         139.6294  139.8765  169.7383 O.2     1  UNL1       -0.2700
     13 N         142.0740  140.4944  169.1124 N.am    1  UNL1       -0.2984
     14 H         142.7689  140.6389  168.4301 H       1  UNL1        0.1498
     15 C         142.4011  140.6721  170.5654 C.3     1  UNL1        0.1215
     16 C         141.9717  141.9168  171.2841 C.3     1  UNL1        0.1583
     17 O         140.6208  141.9799  171.9331 O.3     1  UNL1       -0.3802
     18 H         139.9323  141.9406  171.2510 H       1  UNL1        0.2105
     19 C         138.0377  139.8919  164.1365 C.3     1  UNL1        0.1518
     20 C         138.1368  140.8418  162.9799 C.ar    1  UNL1        0.0841
     21 N         138.2979  140.3120  161.5859 N.ar    1  UNL1       -0.2265
     22 C         138.3970  141.2619  160.4292 C.ar    1  UNL1        0.2012
     23 N         138.3350  142.7417  160.6666 N.ar    1  UNL1       -0.1895
     24 C         138.1740  143.2716  162.0607 C.ar    1  UNL1        0.2282
     25 C         138.0749  142.3216  163.2173 C.ar    1  UNL1        0.0469
     26 C         137.9138  142.8516  164.6113 C.3     1  UNL1        0.0372
     27 O         138.1120  144.7514  162.2980 O.3     1  UNL1       -0.4070
     28 C         139.3785  145.5392  162.4569 C.3     1  UNL1        0.5097
     29 F         140.4778  145.0224  163.3371 F       1  UNL1       -0.1549
     30 F         139.5459  146.8437  161.7357 F       1  UNL1       -0.1549
@<TRIPOS>BOND
     1     1     2    1
     2     2     3   ar
     3     3     4   ar
     4     4     5   ar
     5     5     6   ar
     6     6    11    1
     7    11    12    2
     8    11    13   am
     9    13    15    1
    10    15    16    1
    11    16    17    1
    12     6     7   ar
    13     7     8   ar
    14     8    19    1
    15    19    20    1
    16    20    21   ar
    17    21    22   ar
    18    22    23   ar
    19    23    24   ar
    20    24    27    1
    21    27    28    1
    22    28    29    1
    23    28    30    1
    24    24    25   ar
    25    25    26    1
    26     8     9   ar
    27     9    10   ar
    28    10     2   ar
    29     9     5   ar
    30    25    20   ar
    31    13    14    1
    32    17    18    1
@<TRIPOS>MOLECULE
*****
 30 32 0 0 0
SMALL
GASTEIGER

@<TRIPOS>ATOM
      1 C         143.0469  142.9196  170.3266 C.3     1  UNL1        0.0327
      2 C         141.8671  142.0556  169.9926 C.ar    1  UNL1       -0.0013
      3 C         141.0244  141.4794  171.0916 C.ar    1  UNL1        0.0946
      4 N         139.8446  140.6153  170.7576 N.ar    1  UNL1       -0.2425
      5 C         139.5076  140.3275  169.3246 C.ar    1  UNL1        0.1028
      6 C         138.4143  139.5170  168.6939 C.ar    1  UNL1        0.0895
      7 C         138.5813  139.5922  167.2051 C.ar    1  UNL1        0.0823
      8 N         139.7778  140.4493  166.9157 N.ar    1  UNL1       -0.3190
      9 C         140.3503  140.9037  168.2256 C.ar    1  UNL1        0.0780
     10 C         141.5301  141.7677  168.5596 C.ar    1  UNL1        0.0160
     11 C         137.3422  138.7635  169.4239 C.2     1  UNL1        0.2489
     12 O         136.5410  137.7169  168.7080 O.2     1  UNL1       -0.2700
     13 N         137.0714  139.0566  170.8698 N.am    1  UNL1       -0.2984
     14 H         137.5972  139.7435  171.3397 H       1  UNL1        0.1498
     15 C         135.9993  138.3031  171.5998 C.3     1  UNL1        0.1215
     16 C         136.3714  137.2353  172.5854 C.3     1  UNL1        0.1583
     17 O         135.6465  135.9222  172.5780 O.3     1  UNL1       -0.3802
     18 H         134.7210  136.0623  172.8323 H       1  UNL1        0.2105
     19 C         140.3087  140.7918  165.5552 C.3     1  UNL1        0.1518
     20 C         139.4057  141.4162  164.5332 C.ar    1  UNL1        0.0841
     21 N         138.4650  140.5587  163.7397 N.ar    1  UNL1       -0.2265
     22 C         137.5620  141.1831  162.7176 C.ar    1  UNL1        0.2012
     23 N         137.5996  142.6651  162.4890 N.ar    1  UNL1       -0.1895
     24 C         138.5404  143.5227  163.2825 C.ar    1  UNL1        0.2282
     25 C         139.4435  142.8983  164.3046 C.ar    1  UNL1        0.0469
     26 C         140.3842  143.7558  165.0980 C.3     1  UNL1        0.0372
     27 O         138.5781  145.0047  163.0539 O.3     1  UNL1       -0.4070
     28 C         139.5741  145.5909  162.0977 C.3     1  UNL1        0.5097
     29 F         140.8584  144.8689  161.8161 F       1  UNL1       -0.1549
     30 F         139.2859  146.8993  161.4231 F       1  UNL1       -0.1549
@<TRIPOS>BOND
     1     1     2    1
     2     2     3   ar
     3     3     4   ar
     4     4     5   ar
     5     5     6   ar
     6     6    11    1
     7    11    12    2
     8    11    13   am
     9    13    15    1
    10    15    16    1
    11    16    17    1
    12     6     7   ar
    13     7     8   ar
    14     8    19    1
    15    19    20    1
    16    20    21   ar
    17    21    22   ar
    18    22    23   ar
    19    23    24   ar
    20    24    27    1
    21    27    28    1
    22    28    29    1
    23    28    30    1
    24    24    25   ar
    25    25    26    1
    26     8     9   ar
    27     9    10   ar
    28    10     2   ar
    29     9     5   ar
    30    25    20   ar
    31    13    14    1
    32    17    18    1
@<TRIPOS>MOLECULE
*****
 30 32 0 0 0
SMALL
GASTEIGER

@<TRIPOS>ATOM
      1 C         138.0995  144.7300  165.4376 C.3     1  UNL1        0.0327
      2 C         138.1676  143.8377  164.2338 C.ar    1  UNL1       -0.0013
      3 C         137.9921  144.4158  162.8609 C.ar    1  UNL1        0.0946
      4 N         138.0602  143.5236  161.6570 N.ar    1  UNL1       -0.2425
      5 C         138.3038  142.0532  161.8261 C.ar    1  UNL1        0.1028
      6 C         138.4207  140.9345  160.8337 C.ar    1  UNL1        0.0895
      7 C         138.6684  139.6650  161.5932 C.ar    1  UNL1        0.0823
      8 N         138.7047  139.9990  163.0551 N.ar    1  UNL1       -0.3190
      9 C         138.4793  141.4751  163.1990 C.ar    1  UNL1        0.0780
     10 C         138.4112  142.3673  164.4028 C.ar    1  UNL1        0.0160
     11 C         138.3094  141.0629  159.3433 C.2     1  UNL1        0.2489
     12 O         138.1469  139.8366  158.4950 O.2     1  UNL1       -0.2700
     13 N         138.3605  142.4176  158.7013 N.am    1  UNL1       -0.2984
     14 H         138.4672  143.2225  159.2581 H       1  UNL1        0.1498
     15 C         138.2492  142.5459  157.2110 C.3     1  UNL1        0.1215
     16 C         136.9137  142.4017  156.5434 C.3     1  UNL1        0.1583
     17 O         136.2273  143.6064  155.9711 O.3     1  UNL1       -0.3802
     18 H         135.9854  144.2121  156.6890 H       1  UNL1        0.2105
     19 C         138.9272  139.0277  164.1762 C.3     1  UNL1        0.1518
     20 C         139.7591  139.4256  165.3593 C.ar    1  UNL1        0.0841
     21 N         141.1783  139.8697  165.1628 N.ar    1  UNL1       -0.2265
     22 C         142.0103  140.2676  166.3459 C.ar    1  UNL1        0.2012
     23 N         141.4230  140.2214  167.7254 N.ar    1  UNL1       -0.1895
     24 C         140.0038  139.7772  167.9218 C.ar    1  UNL1        0.2282
     25 C         139.1718  139.3793  166.7388 C.ar    1  UNL1        0.0469
     26 C         137.7526  138.9352  166.9353 C.3     1  UNL1        0.0372
     27 O         139.4166  139.7309  169.3013 O.3     1  UNL1       -0.4070
     28 C         139.7999  140.7682  170.3147 C.3     1  UNL1        0.5097
     29 F         139.0795  142.0834  170.3512 F       1  UNL1       -0.1549
     30 F         140.9035  140.4903  171.2918 F       1  UNL1       -0.1549
@<TRIPOS>BOND
     1     1     2    1
     2     2     3   ar
     3     3     4   ar
     4     4     5   ar
     5     5     6   ar
     6     6    11    1
     7    11    12    2
     8    11    13   am
     9    13    15    1
    10    15    16    1
    11    16    17    1
    12     6     7   ar
    13     7     8   ar
    14     8    19    1
    15    19    20    1
    16    20    21   ar
    17    21    22   ar
    18    22    23   ar
    19    23    24   ar
    20    24    27    1
    21    27    28    1
    22    28    29    1
    23    28    30    1
    24    24    25   ar
    25    25    26    1
    26     8     9   ar
    27     9    10   ar
    28    10     2   ar
    29     9     5   ar
    30    25    20   ar
    31    13    14    1
    32    17    18    1
@<TRIPOS>MOLECULE
*****
 30 32 0 0 0
SMALL
GASTEIGER

@<TRIPOS>ATOM
      1 C         145.6128  141.7671  163.9719 C.3     1  UNL1        0.0327
      2 C         144.4656  142.5364  163.3871 C.ar    1  UNL1       -0.0013
      3 C         144.5451  143.0470  161.9790 C.ar    1  UNL1        0.0946
      4 N         143.3979  143.8163  161.3942 N.ar    1  UNL1       -0.2425
      5 C         142.1711  144.0751  162.2176 C.ar    1  UNL1        0.1028
      6 C         140.8921  144.7974  161.9135 C.ar    1  UNL1        0.0895
      7 C         140.0220  144.7332  163.1338 C.ar    1  UNL1        0.0823
      8 N         140.7633  143.9712  164.1920 N.ar    1  UNL1       -0.3190
      9 C         142.0915  143.5645  163.6257 C.ar    1  UNL1        0.0780
     10 C         143.2388  142.7951  164.2105 C.ar    1  UNL1        0.0160
     11 C         140.5442  145.4664  160.6169 C.2     1  UNL1        0.2489
     12 O         139.3851  146.4161  160.5502 O.2     1  UNL1       -0.2700
     13 N         141.3555  145.1857  159.3868 N.am    1  UNL1       -0.2984
     14 H         142.1162  144.5624  159.4305 H       1  UNL1        0.1498
     15 C         141.0076  145.8547  158.0901 C.3     1  UNL1        0.1215
     16 C         141.9660  145.8007  156.9375 C.3     1  UNL1        0.1583
     17 O         143.0328  144.7470  156.8979 O.3     1  UNL1       -0.3802
     18 H         143.6596  144.8940  157.6234 H       1  UNL1        0.2105
     19 C         140.2641  143.6690  165.5738 C.3     1  UNL1        0.1518
     20 C         139.8102  142.2820  165.9206 C.ar    1  UNL1        0.0841
     21 N         138.9715  141.5030  164.9513 N.ar    1  UNL1       -0.2265
     22 C         138.5176  140.1160  165.2981 C.ar    1  UNL1        0.2012
     23 N         138.9024  139.5080  166.6143 N.ar    1  UNL1       -0.1895
     24 C         139.7412  140.2871  167.5836 C.ar    1  UNL1        0.2282
     25 C         140.1951  141.6741  167.2368 C.ar    1  UNL1        0.0469
     26 C         141.0339  142.4531  168.2062 C.3     1  UNL1        0.0372
     27 O         140.1260  139.6792  168.8998 O.3     1  UNL1       -0.4070
     28 C         139.4717  140.1516  170.1641 C.3     1  UNL1        0.5097
     29 F         140.3131  140.5566  171.3380 F       1  UNL1       -0.1549
     30 F         137.9760  140.2191  170.2547 F       1  UNL1       -0.1549
@<TRIPOS>BOND
     1     1     2    1
     2     2     3   ar
     3     3     4   ar
     4     4     5   ar
     5     5     6   ar
     6     6    11    1
     7    11    12    2
     8    11    13   am
     9    13    15    1
    10    15    16    1
    11    16    17    1
    12     6     7   ar
    13     7     8   ar
    14     8    19    1
    15    19    20    1
    16    20    21   ar
    17    21    22   ar
    18    22    23   ar
    19    23    24   ar
    20    24    27    1
    21    27    28    1
    22    28    29    1
    23    28    30    1
    24    24    25   ar
    25    25    26    1
    26     8     9   ar
    27     9    10   ar
    28    10     2   ar
    29     9     5   ar
    30    25    20   ar
    31    13    14    1
    32    17    18    1
@<TRIPOS>MOLECULE
*****
 30 32 0 0 0
SMALL
GASTEIGER

@<TRIPOS>ATOM
      1 C         138.4140  138.4859  162.3772 C.3     1  UNL1        0.0327
      2 C         139.2653  138.7390  163.5861 C.ar    1  UNL1       -0.0013
      3 C         138.6347  138.8155  164.9448 C.ar    1  UNL1        0.0946
      4 N         139.4860  139.0686  166.1537 N.ar    1  UNL1       -0.2425
      5 C         140.9679  139.2451  166.0037 C.ar    1  UNL1        0.1028
      6 C         142.0542  139.5046  167.0050 C.ar    1  UNL1        0.0895
      7 C         143.3563  139.5885  166.2650 C.ar    1  UNL1        0.0823
      8 N         143.0748  139.3808  164.8064 N.ar    1  UNL1       -0.3190
      9 C         141.5986  139.1686  164.6449 C.ar    1  UNL1        0.0780
     10 C         140.7473  138.9155  163.4361 C.ar    1  UNL1        0.0160
     11 C         141.8707  139.6541  168.4862 C.2     1  UNL1        0.2489
     12 O         143.0506  139.5321  169.4043 O.2     1  UNL1       -0.2700
     13 N         140.5072  139.9255  169.0493 N.am    1  UNL1       -0.2984
     14 H         139.7327  140.0055  168.4468 H       1  UNL1        0.1498
     15 C         140.3236  140.0749  170.5305 C.3     1  UNL1        0.1215
     16 C         140.7980  141.3178  171.2235 C.3     1  UNL1        0.1583
     17 O         142.2190  141.4186  171.6933 O.3     1  UNL1       -0.3802
     18 H         142.3730  140.7707  172.3986 H       1  UNL1        0.2105
     19 C         144.0909  139.3847  163.7030 C.3     1  UNL1        0.1518
     20 C         144.0571  140.4584  162.6561 C.ar    1  UNL1        0.0841
     21 N         143.7478  140.1070  161.2310 N.ar    1  UNL1       -0.2265
     22 C         143.7140  141.1807  160.1841 C.ar    1  UNL1        0.2012
     23 N         143.9895  142.6059  160.5623 N.ar    1  UNL1       -0.1895
     24 C         144.2988  142.9572  161.9874 C.ar    1  UNL1        0.2282
     25 C         144.3326  141.8835  163.0343 C.ar    1  UNL1        0.0469
     26 C         144.6419  142.2350  164.4594 C.3     1  UNL1        0.0372
     27 O         144.5743  144.3824  162.3656 O.3     1  UNL1       -0.4070
     28 C         143.6234  145.1175  163.2631 C.3     1  UNL1        0.5097
     29 F         142.1981  145.3190  162.8415 F       1  UNL1       -0.1549
     30 F         144.0978  145.6511  164.5822 F       1  UNL1       -0.1549
@<TRIPOS>BOND
     1     1     2    1
     2     2     3   ar
     3     3     4   ar
     4     4     5   ar
     5     5     6   ar
     6     6    11    1
     7    11    12    2
     8    11    13   am
     9    13    15    1
    10    15    16    1
    11    16    17    1
    12     6     7   ar
    13     7     8   ar
    14     8    19    1
    15    19    20    1
    16    20    21   ar
    17    21    22   ar
    18    22    23   ar
    19    23    24   ar
    20    24    27    1
    21    27    28    1
    22    28    29    1
    23    28    30    1
    24    24    25   ar
    25    25    26    1
    26     8     9   ar
    27     9    10   ar
    28    10     2   ar
    29     9     5   ar
    30    25    20   ar
    31    13    14    1
    32    17    18    1
@<TRIPOS>MOLECULE
*****
 30 32 0 0 0
SMALL
GASTEIGER

@<TRIPOS>ATOM
      1 C         138.2750  144.8063  165.4000 C.3     1  UNL1        0.0327
      2 C         138.1584  143.7112  164.3816 C.ar    1  UNL1       -0.0013
      3 C         137.8159  144.0429  162.9594 C.ar    1  UNL1        0.0946
      4 N         137.6993  142.9478  161.9410 N.ar    1  UNL1       -0.2425
      5 C         137.9251  141.5210  162.3448 C.ar    1  UNL1        0.1028
      6 C         137.8793  140.2387  161.5678 C.ar    1  UNL1        0.0895
      7 C         138.1934  139.1144  162.5099 C.ar    1  UNL1        0.0823
      8 N         138.4334  139.7019  163.8690 N.ar    1  UNL1       -0.3190
      9 C         138.2676  141.1892  163.7669 C.ar    1  UNL1        0.0780
     10 C         138.3842  142.2843  164.7854 C.ar    1  UNL1        0.0160
     11 C         137.5731  140.1043  160.1056 C.2     1  UNL1        0.2489
     12 O         136.2724  139.5018  159.6639 O.2     1  UNL1       -0.2700
     13 N         138.5676  140.5725  159.0849 N.am    1  UNL1       -0.2984
     14 H         139.4213  140.9679  159.3748 H       1  UNL1        0.1498
     15 C         138.2614  140.4381  157.6227 C.3     1  UNL1        0.1215
     16 C         137.1011  141.1799  157.0281 C.3     1  UNL1        0.1583
     17 O         135.7754  140.4962  156.8700 O.3     1  UNL1       -0.3802
     18 H         135.8572  139.7777  156.2235 H       1  UNL1        0.2105
     19 C         138.7785  138.9364  165.1120 C.3     1  UNL1        0.1518
     20 C         140.0474  139.2405  165.8519 C.ar    1  UNL1        0.0841
     21 N         140.0003  140.0193  167.1330 N.ar    1  UNL1       -0.2265
     22 C         141.2691  140.3234  167.8730 C.ar    1  UNL1        0.2012
     23 N         142.5851  139.8487  167.3319 N.ar    1  UNL1       -0.1895
     24 C         142.6322  139.0699  166.0508 C.ar    1  UNL1        0.2282
     25 C         141.3633  138.7658  165.3108 C.ar    1  UNL1        0.0469
     26 C         141.4105  137.9870  164.0297 C.3     1  UNL1        0.0372
     27 O         143.9482  138.5952  165.5097 O.3     1  UNL1       -0.4070
     28 C         144.5994  139.3261  164.3731 C.3     1  UNL1        0.5097
     29 F         145.3116  140.6220  164.6248 F       1  UNL1       -0.1549
     30 F         144.5384  138.7612  162.9850 F       1  UNL1       -0.1549
@<TRIPOS>BOND
     1     1     2    1
     2     2     3   ar
     3     3     4   ar
     4     4     5   ar
     5     5     6   ar
     6     6    11    1
     7    11    12    2
     8    11    13   am
     9    13    15    1
    10    15    16    1
    11    16    17    1
    12     6     7   ar
    13     7     8   ar
    14     8    19    1
    15    19    20    1
    16    20    21   ar
    17    21    22   ar
    18    22    23   ar
    19    23    24   ar
    20    24    27    1
    21    27    28    1
    22    28    29    1
    23    28    30    1
    24    24    25   ar
    25    25    26    1
    26     8     9   ar
    27     9    10   ar
    28    10     2   ar
    29     9     5   ar
    30    25    20   ar
    31    13    14    1
    32    17    18    1
@<TRIPOS>MOLECULE
*****
 30 32 0 0 0
SMALL
GASTEIGER

@<TRIPOS>ATOM
      1 C         142.8641  143.1562  170.3979 C.3     1  UNL1        0.0327
      2 C         141.7154  142.2494  170.0689 C.ar    1  UNL1       -0.0013
      3 C         140.8392  141.7208  171.1655 C.ar    1  UNL1        0.0946
      4 N         139.6905  140.8141  170.8365 N.ar    1  UNL1       -0.2425
      5 C         139.4181  140.4358  169.4108 C.ar    1  UNL1        0.1028
      6 C         138.3670  139.5669  168.7861 C.ar    1  UNL1        0.0895
      7 C         138.5936  139.5585  167.3033 C.ar    1  UNL1        0.0823
      8 N         139.7848  140.4222  167.0116 N.ar    1  UNL1       -0.3190
      9 C         140.2943  140.9644  168.3141 C.ar    1  UNL1        0.0780
     10 C         141.4430  141.8712  168.6431 C.ar    1  UNL1        0.0160
     11 C         137.2801  138.8350  169.5161 C.2     1  UNL1        0.2489
     12 O         136.5210  137.7392  168.8283 O.2     1  UNL1       -0.2700
     13 N         136.9522  139.1988  170.9338 N.am    1  UNL1       -0.2984
     14 H         137.4503  139.9180  171.3853 H       1  UNL1        0.1498
     15 C         135.8652  138.4669  171.6638 C.3     1  UNL1        0.1215
     16 C         136.1265  137.0999  172.2234 C.3     1  UNL1        0.1583
     17 O         137.5212  136.5479  172.2341 O.3     1  UNL1       -0.3802
     18 H         137.8214  136.4100  171.3221 H       1  UNL1        0.2105
     19 C         140.3647  140.6956  165.6555 C.3     1  UNL1        0.1518
     20 C         141.8014  140.3689  165.3744 C.ar    1  UNL1        0.0841
     21 N         142.3042  138.9691  165.5686 N.ar    1  UNL1       -0.2265
     22 C         143.7409  138.6424  165.2876 C.ar    1  UNL1        0.2012
     23 N         144.6750  139.7156  164.8122 N.ar    1  UNL1       -0.1895
     24 C         144.1722  141.1154  164.6180 C.ar    1  UNL1        0.2282
     25 C         142.7354  141.4421  164.8991 C.ar    1  UNL1        0.0469
     26 C         142.2328  142.8420  164.7049 C.3     1  UNL1        0.0372
     27 O         145.1062  142.1886  164.1427 O.3     1  UNL1       -0.4070
     28 C         144.9873  142.7217  162.7457 C.3     1  UNL1        0.5097
     29 F         145.2600  141.8247  161.5749 F       1  UNL1       -0.1549
     30 F         144.5956  144.1519  162.5196 F       1  UNL1       -0.1549
@<TRIPOS>BOND
     1     1     2    1
     2     2     3   ar
     3     3     4   ar
     4     4     5   ar
     5     5     6   ar
     6     6    11    1
     7    11    12    2
     8    11    13   am
     9    13    15    1
    10    15    16    1
    11    16    17    1
    12     6     7   ar
    13     7     8   ar
    14     8    19    1
    15    19    20    1
    16    20    21   ar
    17    21    22   ar
    18    22    23   ar
    19    23    24   ar
    20    24    27    1
    21    27    28    1
    22    28    29    1
    23    28    30    1
    24    24    25   ar
    25    25    26    1
    26     8     9   ar
    27     9    10   ar
    28    10     2   ar
    29     9     5   ar
    30    25    20   ar
    31    13    14    1
    32    17    18    1
@<TRIPOS>MOLECULE
*****
 30 32 0 0 0
SMALL
GASTEIGER

@<TRIPOS>ATOM
      1 C         145.4335  142.0963  164.3331 C.3     1  UNL1        0.0327
      2 C         144.2670  142.8176  163.7256 C.ar    1  UNL1       -0.0013
      3 C         144.3653  143.3620  162.3313 C.ar    1  UNL1        0.0946
      4 N         143.1988  144.0833  161.7238 N.ar    1  UNL1       -0.2425
      5 C         141.9341  144.2603  162.5106 C.ar    1  UNL1        0.1028
      6 C         140.6295  144.9217  162.1782 C.ar    1  UNL1        0.0895
      7 C         139.7248  144.7861  163.3670 C.ar    1  UNL1        0.0823
      8 N         140.4703  144.0408  164.4342 N.ar    1  UNL1       -0.3190
      9 C         141.8358  143.7159  163.9048 C.ar    1  UNL1        0.0780
     10 C         143.0022  142.9945  164.5123 C.ar    1  UNL1        0.0160
     11 C         140.2892  145.5997  160.8842 C.2     1  UNL1        0.2489
     12 O         139.1897  146.6189  160.8379 O.2     1  UNL1       -0.2700
     13 N         141.0485  145.2585  159.6364 N.am    1  UNL1       -0.2984
     14 H         141.7702  144.5895  159.6667 H       1  UNL1        0.1498
     15 C         140.7083  145.9365  158.3423 C.3     1  UNL1        0.1215
     16 C         141.4472  145.5734  157.0884 C.3     1  UNL1        0.1583
     17 O         142.8356  145.0120  157.1719 O.3     1  UNL1       -0.3802
     18 H         143.4365  145.6868  157.5248 H       1  UNL1        0.2105
     19 C         139.9431  143.6833  165.7922 C.3     1  UNL1        0.1518
     20 C         140.0936  142.2839  166.3106 C.ar    1  UNL1        0.0841
     21 N         141.0775  141.9909  167.4042 N.ar    1  UNL1       -0.2265
     22 C         141.2281  140.5914  167.9226 C.ar    1  UNL1        0.2012
     23 N         140.3947  139.4848  167.3474 N.ar    1  UNL1       -0.1895
     24 C         139.4108  139.7778  166.2537 C.ar    1  UNL1        0.2282
     25 C         139.2602  141.1773  165.7352 C.ar    1  UNL1        0.0469
     26 C         138.2763  141.4701  164.6416 C.3     1  UNL1        0.0372
     27 O         138.5774  138.6712  165.6784 O.3     1  UNL1       -0.4070
     28 C         139.1605  137.7519  164.6464 C.3     1  UNL1        0.5097
     29 F         140.4063  136.9746  164.9526 F       1  UNL1       -0.1549
     30 F         138.4977  137.6098  163.3083 F       1  UNL1       -0.1549
@<TRIPOS>BOND
     1     1     2    1
     2     2     3   ar
     3     3     4   ar
     4     4     5   ar
     5     5     6   ar
     6     6    11    1
     7    11    12    2
     8    11    13   am
     9    13    15    1
    10    15    16    1
    11    16    17    1
    12     6     7   ar
    13     7     8   ar
    14     8    19    1
    15    19    20    1
    16    20    21   ar
    17    21    22   ar
    18    22    23   ar
    19    23    24   ar
    20    24    27    1
    21    27    28    1
    22    28    29    1
    23    28    30    1
    24    24    25   ar
    25    25    26    1
    26     8     9   ar
    27     9    10   ar
    28    10     2   ar
    29     9     5   ar
    30    25    20   ar
    31    13    14    1
    32    17    18    1
@<TRIPOS>MOLECULE
*****
 30 32 0 0 0
SMALL
GASTEIGER

@<TRIPOS>ATOM
      1 C         143.3137  142.5295  170.1584 C.3     1  UNL1        0.0327
      2 C         142.0645  141.7547  169.8599 C.ar    1  UNL1       -0.0013
      3 C         141.2172  141.2358  170.9837 C.ar    1  UNL1        0.0946
      4 N         139.9680  140.4609  170.6852 N.ar    1  UNL1       -0.2425
      5 C         139.5661  140.2049  169.2630 C.ar    1  UNL1        0.1028
      6 C         138.3977  139.4785  168.6654 C.ar    1  UNL1        0.0895
      7 C         138.5228  139.5484  167.1722 C.ar    1  UNL1        0.0823
      8 N         139.7686  140.3180  166.8470 N.ar    1  UNL1       -0.3190
      9 C         140.4134  140.7237  168.1392 C.ar    1  UNL1        0.0780
     10 C         141.6626  141.4986  168.4377 C.ar    1  UNL1        0.0160
     11 C         137.2973  138.8012  169.4272 C.2     1  UNL1        0.2489
     12 O         136.4909  137.7173  168.7755 O.2     1  UNL1       -0.2700
     13 N         137.0034  139.2077  170.8408 N.am    1  UNL1       -0.2984
     14 H         137.5327  139.9191  171.2686 H       1  UNL1        0.1498
     15 C         135.9030  138.5303  171.6026 C.3     1  UNL1        0.1215
     16 C         136.1943  137.2945  172.4013 C.3     1  UNL1        0.1583
     17 O         137.4741  136.5437  172.1813 O.3     1  UNL1       -0.3802
     18 H         137.4772  136.1644  171.2885 H       1  UNL1        0.2105
     19 C         140.2798  140.6276  165.4712 C.3     1  UNL1        0.1518
     20 C         140.4421  139.5261  164.4660 C.ar    1  UNL1        0.0841
     21 N         139.2509  138.7235  164.0340 N.ar    1  UNL1       -0.2265
     22 C         139.4131  137.6220  163.0288 C.ar    1  UNL1        0.2012
     23 N         140.7667  137.3231  162.4556 N.ar    1  UNL1       -0.1895
     24 C         141.9580  138.1258  162.8876 C.ar    1  UNL1        0.2282
     25 C         141.7957  139.2273  163.8928 C.ar    1  UNL1        0.0469
     26 C         142.9870  140.0299  164.3248 C.3     1  UNL1        0.0372
     27 O         143.3116  137.8270  162.3144 O.3     1  UNL1       -0.4070
     28 C         143.5843  138.0838  160.8620 C.3     1  UNL1        0.5097
     29 F         142.8186  137.3357  159.8113 F       1  UNL1       -0.1549
     30 F         144.6228  139.0888  160.4601 F       1  UNL1       -0.1549
@<TRIPOS>BOND
     1     1     2    1
     2     2     3   ar
     3     3     4   ar
     4     4     5   ar
     5     5     6   ar
     6     6    11    1
     7    11    12    2
     8    11    13   am
     9    13    15    1
    10    15    16    1
    11    16    17    1
    12     6     7   ar
    13     7     8   ar
    14     8    19    1
    15    19    20    1
    16    20    21   ar
    17    21    22   ar
    18    22    23   ar
    19    23    24   ar
    20    24    27    1
    21    27    28    1
    22    28    29    1
    23    28    30    1
    24    24    25   ar
    25    25    26    1
    26     8     9   ar
    27     9    10   ar
    28    10     2   ar
    29     9     5   ar
    30    25    20   ar
    31    13    14    1
    32    17    18    1
