@<TRIPOS>MOLECULE
*****
 31 34 0 0 0
SMALL
GASTEIGER

@<TRIPOS>ATOM
      1 C         140.9773  143.6817  162.2543 C.ar    1  UNL1        0.0173
      2 C         140.2639  144.9794  162.0156 C.ar    1  UNL1        0.0016
      3 C         140.3574  145.6517  160.6780 C.ar    1  UNL1        0.0046
      4 C         141.1644  145.0262  159.5790 C.ar    1  UNL1        0.0537
      5 C         141.8779  143.7285  159.8178 C.ar    1  UNL1        0.0046
      6 C         141.7843  143.0563  161.1555 C.ar    1  UNL1        0.0016
      7 C         143.2035  143.9817  164.2429 C.3     1  UNL1        0.0326
      8 C         141.9968  143.1595  164.5863 C.ar    1  UNL1       -0.0044
      9 C         141.9032  142.4872  165.9239 C.ar    1  UNL1       -0.0041
     10 C         140.6965  141.6650  166.2673 C.ar    1  UNL1        0.0127
     11 C         139.5835  141.5151  165.2731 C.ar    1  UNL1        0.0959
     12 N         139.6771  142.1873  163.9355 N.ar    1  UNL1       -0.2444
     13 C         140.8838  143.0095  163.5921 C.ar    1  UNL1        0.0773
     14 C         140.6030  140.9928  167.6050 C.3     1  UNL1        0.1007
     15 N         140.2759  141.7979  168.8277 N.3     1  UNL1       -0.2688
     16 C         140.4222  143.2384  169.2196 C.3     1  UNL1        0.0738
     17 C         139.8134  142.9364  170.5568 C.3     1  UNL1        0.0347
     18 C         139.6671  141.4960  170.1649 C.3     1  UNL1        0.0738
     19 C         141.2580  145.6985  158.2414 C.2     1  UNL1        0.2495
     20 O         142.5509  146.3197  157.8031 O.2     1  UNL1       -0.2698
     21 N         140.0585  145.7494  157.3421 N.am    1  UNL1       -0.2794
     22 H         139.2099  145.3416  157.6298 H       1  UNL1        0.1552
     23 C         140.1520  146.4217  156.0044 C.ar    1  UNL1        0.0636
     24 C         140.9265  145.7767  154.8934 C.ar    1  UNL1        0.0159
     25 C         141.0200  146.4490  153.5557 C.ar    1  UNL1        0.0014
     26 C         140.3391  147.7662  153.3291 C.ar    1  UNL1        0.0013
     27 C         139.5647  148.4112  154.4401 C.ar    1  UNL1        0.0153
     28 C         139.4711  147.7389  155.7778 C.ar    1  UNL1        0.0552
     29 N         138.6967  148.3839  156.8888 N.pl3   1  UNL1       -0.3560
     30 H         138.2499  149.2484  156.7400 H       1  UNL1        0.1424
     31 H         138.6354  147.9426  157.7667 H       1  UNL1        0.1424
@<TRIPOS>BOND
     1     7     8    1
     2     8     9   ar
     3     9    10   ar
     4    10    14    1
     5    14    15    1
     6    15    16    1
     7    16    17    1
     8    17    18    1
     9    10    11   ar
    10    11    12   ar
    11    12    13   ar
    12    13     1    1
    13     1     2   ar
    14     2     3   ar
    15     3     4   ar
    16     4    19    1
    17    19    20    2
    18    19    21   am
    19    21    23    1
    20    23    24   ar
    21    24    25   ar
    22    25    26   ar
    23    26    27   ar
    24    27    28   ar
    25    28    29    1
    26     4     5   ar
    27     5     6   ar
    28    13     8   ar
    29     6     1   ar
    30    18    15    1
    31    28    23   ar
    32    21    22    1
    33    29    30    1
    34    29    31    1
@<TRIPOS>MOLECULE
*****
 31 34 0 0 0
SMALL
GASTEIGER

@<TRIPOS>ATOM
      1 C         139.9219  143.1500  161.3522 C.ar    1  UNL1        0.0173
      2 C         139.3456  142.7555  160.0247 C.ar    1  UNL1        0.0016
      3 C         139.6212  143.5904  158.8094 C.ar    1  UNL1        0.0046
      4 C         140.4732  144.8199  158.9216 C.ar    1  UNL1        0.0537
      5 C         141.0495  145.2145  160.2491 C.ar    1  UNL1        0.0046
      6 C         140.7738  144.3795  161.4644 C.ar    1  UNL1        0.0016
      7 C         137.6365  143.8491  163.1656 C.3     1  UNL1        0.0326
      8 C         138.5036  142.6646  163.4742 C.ar    1  UNL1       -0.0044
      9 C         138.2280  141.8296  164.6894 C.ar    1  UNL1       -0.0041
     10 C         139.0950  140.6452  164.9980 C.ar    1  UNL1        0.0127
     11 C         140.2377  140.2956  164.0913 C.ar    1  UNL1        0.0959
     12 N         140.5133  141.1306  162.8760 N.ar    1  UNL1       -0.2444
     13 C         139.6462  142.3151  162.5675 C.ar    1  UNL1        0.0773
     14 C         138.8194  139.8102  166.2133 C.3     1  UNL1        0.1007
     15 N         139.6831  139.9509  167.4316 N.3     1  UNL1       -0.2688
     16 C         139.4291  140.2011  168.8887 C.3     1  UNL1        0.0738
     17 C         140.9045  140.1500  169.1545 C.3     1  UNL1        0.0347
     18 C         141.1584  139.8999  167.6975 C.3     1  UNL1        0.0738
     19 C         140.7488  145.6548  157.7063 C.2     1  UNL1        0.2495
     20 O         142.1181  146.2247  157.4828 O.2     1  UNL1       -0.2698
     21 N         139.6550  145.9198  156.7146 N.am    1  UNL1       -0.2794
     22 H         138.7563  145.5457  156.8613 H       1  UNL1        0.1552
     23 C         139.9306  146.7547  155.4993 C.ar    1  UNL1        0.0636
     24 C         140.7443  146.1922  154.3717 C.ar    1  UNL1        0.0159
     25 C         141.0199  147.0272  153.1564 C.ar    1  UNL1        0.0014
     26 C         140.4818  148.4246  153.0687 C.ar    1  UNL1        0.0013
     27 C         139.6682  148.9871  154.1964 C.ar    1  UNL1        0.0153
     28 C         139.3926  148.1522  155.4116 C.ar    1  UNL1        0.0552
     29 N         138.5789  148.7147  156.5393 N.pl3   1  UNL1       -0.3560
     30 H         138.2258  149.6319  156.4817 H       1  UNL1        0.1424
     31 H         138.3980  148.1667  157.3369 H       1  UNL1        0.1424
@<TRIPOS>BOND
     1     7     8    1
     2     8     9   ar
     3     9    10   ar
     4    10    14    1
     5    14    15    1
     6    15    16    1
     7    16    17    1
     8    17    18    1
     9    10    11   ar
    10    11    12   ar
    11    12    13   ar
    12    13     1    1
    13     1     2   ar
    14     2     3   ar
    15     3     4   ar
    16     4    19    1
    17    19    20    2
    18    19    21   am
    19    21    23    1
    20    23    24   ar
    21    24    25   ar
    22    25    26   ar
    23    26    27   ar
    24    27    28   ar
    25    28    29    1
    26     4     5   ar
    27     5     6   ar
    28    13     8   ar
    29     6     1   ar
    30    18    15    1
    31    28    23   ar
    32    21    22    1
    33    29    30    1
    34    29    31    1
@<TRIPOS>MOLECULE
*****
 31 34 0 0 0
SMALL
GASTEIGER

@<TRIPOS>ATOM
      1 C         140.9766  138.8797  161.9457 C.ar    1  UNL1        0.0173
      2 C         141.1417  140.3046  162.3841 C.ar    1  UNL1        0.0016
      3 C         140.9579  140.6715  163.8269 C.ar    1  UNL1        0.0046
      4 C         140.6090  139.6134  164.8313 C.ar    1  UNL1        0.0537
      5 C         140.4439  138.1884  164.3928 C.ar    1  UNL1        0.0046
      6 C         140.6277  137.8216  162.9500 C.ar    1  UNL1        0.0016
      7 C         143.6481  137.9261  160.9689 C.3     1  UNL1        0.0326
      8 C         142.4961  138.0361  160.0145 C.ar    1  UNL1       -0.0044
      9 C         142.6799  137.6693  158.5717 C.ar    1  UNL1       -0.0041
     10 C         141.5279  137.7792  157.6173 C.ar    1  UNL1        0.0127
     11 C         140.1922  138.2559  158.1056 C.ar    1  UNL1        0.0959
     12 N         140.0085  138.6227  159.5484 N.ar    1  UNL1       -0.2444
     13 C         141.1604  138.5128  160.5028 C.ar    1  UNL1        0.0773
     14 C         141.7118  137.4123  156.1744 C.3     1  UNL1        0.1007
     15 N         142.4192  136.1414  155.8080 N.3     1  UNL1       -0.2688
     16 C         143.8386  135.7694  155.4966 C.3     1  UNL1        0.0738
     17 C         143.4196  134.3440  155.2898 C.3     1  UNL1        0.0347
     18 C         142.0003  134.7160  155.6011 C.3     1  UNL1        0.0738
     19 C         140.4252  139.9802  166.2740 C.2     1  UNL1        0.2495
     20 O         139.2207  139.4937  167.0240 O.2     1  UNL1       -0.2698
     21 N         141.4459  140.8336  166.9668 N.am    1  UNL1       -0.2794
     22 H         142.2364  141.1529  166.4745 H       1  UNL1        0.1552
     23 C         141.2621  141.2005  168.4095 C.ar    1  UNL1        0.0636
     24 C         140.4084  142.3764  168.7815 C.ar    1  UNL1        0.0159
     25 C         140.2246  142.7433  170.2244 C.ar    1  UNL1        0.0014
     26 C         140.8945  141.9342  171.2951 C.ar    1  UNL1        0.0013
     27 C         141.7482  140.7583  170.9232 C.ar    1  UNL1        0.0153
     28 C         141.9320  140.3914  169.4804 C.ar    1  UNL1        0.0552
     29 N         142.7856  139.2154  169.1084 N.pl3   1  UNL1       -0.3560
     30 H         143.2253  138.6844  169.8112 H       1  UNL1        0.1424
     31 H         142.9063  138.9746  168.1615 H       1  UNL1        0.1424
@<TRIPOS>BOND
     1     7     8    1
     2     8     9   ar
     3     9    10   ar
     4    10    14    1
     5    14    15    1
     6    15    16    1
     7    16    17    1
     8    17    18    1
     9    10    11   ar
    10    11    12   ar
    11    12    13   ar
    12    13     1    1
    13     1     2   ar
    14     2     3   ar
    15     3     4   ar
    16     4    19    1
    17    19    20    2
    18    19    21   am
    19    21    23    1
    20    23    24   ar
    21    24    25   ar
    22    25    26   ar
    23    26    27   ar
    24    27    28   ar
    25    28    29    1
    26     4     5   ar
    27     5     6   ar
    28    13     8   ar
    29     6     1   ar
    30    18    15    1
    31    28    23   ar
    32    21    22    1
    33    29    30    1
    34    29    31    1
@<TRIPOS>MOLECULE
*****
 31 34 0 0 0
SMALL
GASTEIGER

@<TRIPOS>ATOM
      1 C         141.2157  144.1187  160.8819 C.ar    1  UNL1        0.0173
      2 C         140.5399  144.9135  161.9597 C.ar    1  UNL1        0.0016
      3 C         140.6456  144.4778  163.3911 C.ar    1  UNL1        0.0046
      4 C         141.4271  143.2473  163.7448 C.ar    1  UNL1        0.0537
      5 C         142.1030  142.4525  162.6671 C.ar    1  UNL1        0.0046
      6 C         141.9973  142.8882  161.2356 C.ar    1  UNL1        0.0016
      7 C         139.0434  143.0121  159.1336 C.3     1  UNL1        0.0326
      8 C         140.0239  144.0011  158.5764 C.ar    1  UNL1       -0.0044
      9 C         139.9182  144.4368  157.1450 C.ar    1  UNL1       -0.0041
     10 C         140.8987  145.4258  156.5877 C.ar    1  UNL1        0.0127
     11 C         141.9848  145.9791  157.4618 C.ar    1  UNL1        0.0959
     12 N         142.0905  145.5434  158.8932 N.ar    1  UNL1       -0.2444
     13 C         141.1100  144.5544  159.4505 C.ar    1  UNL1        0.0773
     14 C         140.7929  145.8615  155.1562 C.3     1  UNL1        0.1007
     15 N         140.2115  147.2032  154.8216 N.3     1  UNL1       -0.2688
     16 C         139.1305  148.0656  155.4029 C.3     1  UNL1        0.0738
     17 C         139.3892  149.1005  154.3484 C.3     1  UNL1        0.0347
     18 C         140.4701  148.2382  153.7672 C.3     1  UNL1        0.0738
     19 C         141.5328  142.8117  165.1762 C.2     1  UNL1        0.2495
     20 O         140.4890  143.2333  166.1675 O.2     1  UNL1       -0.2698
     21 N         142.6823  141.9543  165.6164 N.am    1  UNL1       -0.2794
     22 H         143.3673  141.6776  164.9658 H       1  UNL1        0.1552
     23 C         142.7880  141.5187  167.0478 C.ar    1  UNL1        0.0636
     24 C         143.3293  142.4619  168.0808 C.ar    1  UNL1        0.0159
     25 C         143.4350  142.0262  169.5123 C.ar    1  UNL1        0.0014
     26 C         142.9993  140.6473  169.9107 C.ar    1  UNL1        0.0013
     27 C         142.4579  139.7041  168.8776 C.ar    1  UNL1        0.0153
     28 C         142.3522  140.1397  167.4462 C.ar    1  UNL1        0.0552
     29 N         141.8108  139.1965  166.4132 N.pl3   1  UNL1       -0.3560
     30 H         141.5249  138.2914  166.6747 H       1  UNL1        0.1424
     31 H         141.7415  139.4824  165.4737 H       1  UNL1        0.1424
@<TRIPOS>BOND
     1     7     8    1
     2     8     9   ar
     3     9    10   ar
     4    10    14    1
     5    14    15    1
     6    15    16    1
     7    16    17    1
     8    17    18    1
     9    10    11   ar
    10    11    12   ar
    11    12    13   ar
    12    13     1    1
    13     1     2   ar
    14     2     3   ar
    15     3     4   ar
    16     4    19    1
    17    19    20    2
    18    19    21   am
    19    21    23    1
    20    23    24   ar
    21    24    25   ar
    22    25    26   ar
    23    26    27   ar
    24    27    28   ar
    25    28    29    1
    26     4     5   ar
    27     5     6   ar
    28    13     8   ar
    29     6     1   ar
    30    18    15    1
    31    28    23   ar
    32    21    22    1
    33    29    30    1
    34    29    31    1
@<TRIPOS>MOLECULE
*****
 31 34 0 0 0
SMALL
GASTEIGER

@<TRIPOS>ATOM
      1 C         141.3105  143.4194  163.3589 C.ar    1  UNL1        0.0173
      2 C         141.2173  144.8649  162.9693 C.ar    1  UNL1        0.0016
      3 C         140.8901  145.2408  161.5545 C.ar    1  UNL1        0.0046
      4 C         140.6562  144.1711  160.5292 C.ar    1  UNL1        0.0537
      5 C         140.7494  142.7255  160.9188 C.ar    1  UNL1        0.0046
      6 C         141.0766  142.3497  162.3337 C.ar    1  UNL1        0.0016
      7 C         144.1672  143.0155  164.1814 C.3     1  UNL1        0.0326
      8 C         143.0660  142.8417  165.1849 C.ar    1  UNL1       -0.0044
      9 C         143.3931  142.4659  166.5998 C.ar    1  UNL1       -0.0041
     10 C         142.2919  142.2920  167.6033 C.ar    1  UNL1        0.0127
     11 C         140.8636  142.4939  167.1921 C.ar    1  UNL1        0.0959
     12 N         140.5365  142.8697  165.7773 N.ar    1  UNL1       -0.2444
     13 C         141.6377  143.0436  164.7737 C.ar    1  UNL1        0.0773
     14 C         142.6191  141.9162  169.0182 C.3     1  UNL1        0.1007
     15 N         141.6532  141.0934  169.8182 N.3     1  UNL1       -0.2688
     16 C         140.5648  141.3967  170.8049 C.3     1  UNL1        0.0738
     17 C         140.2871  139.9298  170.9495 C.3     1  UNL1        0.0347
     18 C         141.3753  139.6265  169.9628 C.3     1  UNL1        0.0738
     19 C         140.3290  144.5469  159.1144 C.2     1  UNL1        0.2495
     20 O         139.4121  143.6818  158.3015 O.2     1  UNL1       -0.2698
     21 N         140.9187  145.7879  158.5126 N.am    1  UNL1       -0.2794
     22 H         141.5204  146.3557  159.0461 H       1  UNL1        0.1552
     23 C         140.5915  146.1637  157.0978 C.ar    1  UNL1        0.0636
     24 C         139.3950  147.0203  156.8068 C.ar    1  UNL1        0.0159
     25 C         139.0679  147.3962  155.3920 C.ar    1  UNL1        0.0014
     26 C         139.9372  146.9154  154.2681 C.ar    1  UNL1        0.0013
     27 C         141.1337  146.0588  154.5590 C.ar    1  UNL1        0.0153
     28 C         141.4609  145.6830  155.9738 C.ar    1  UNL1        0.0552
     29 N         142.6573  144.8264  156.2647 N.pl3   1  UNL1       -0.3560
     30 H         143.2279  144.5108  155.5271 H       1  UNL1        0.1424
     31 H         142.8721  144.5797  157.1933 H       1  UNL1        0.1424
@<TRIPOS>BOND
     1     7     8    1
     2     8     9   ar
     3     9    10   ar
     4    10    14    1
     5    14    15    1
     6    15    16    1
     7    16    17    1
     8    17    18    1
     9    10    11   ar
    10    11    12   ar
    11    12    13   ar
    12    13     1    1
    13     1     2   ar
    14     2     3   ar
    15     3     4   ar
    16     4    19    1
    17    19    20    2
    18    19    21   am
    19    21    23    1
    20    23    24   ar
    21    24    25   ar
    22    25    26   ar
    23    26    27   ar
    24    27    28   ar
    25    28    29    1
    26     4     5   ar
    27     5     6   ar
    28    13     8   ar
    29     6     1   ar
    30    18    15    1
    31    28    23   ar
    32    21    22    1
    33    29    30    1
    34    29    31    1
@<TRIPOS>MOLECULE
*****
 31 34 0 0 0
SMALL
GASTEIGER

@<TRIPOS>ATOM
      1 C         140.3471  143.1293  162.2883 C.ar    1  UNL1        0.0173
      2 C         139.2482  142.6211  161.4028 C.ar    1  UNL1        0.0016
      3 C         139.1432  143.1029  159.9862 C.ar    1  UNL1        0.0046
      4 C         140.1370  144.0931  159.4551 C.ar    1  UNL1        0.0537
      5 C         141.2358  144.6013  160.3407 C.ar    1  UNL1        0.0046
      6 C         141.3408  144.1194  161.7573 C.ar    1  UNL1        0.0016
      7 C         139.2096  144.7779  164.5218 C.3     1  UNL1        0.0326
      8 C         139.8833  143.4718  164.8217 C.ar    1  UNL1       -0.0044
      9 C         139.9884  142.9899  166.2382 C.ar    1  UNL1       -0.0041
     10 C         140.6621  141.6837  166.5381 C.ar    1  UNL1        0.0127
     11 C         141.2308  140.8594  165.4214 C.ar    1  UNL1        0.0959
     12 N         141.1258  141.3413  164.0049 N.ar    1  UNL1       -0.2444
     13 C         140.4521  142.6475  163.7050 C.ar    1  UNL1        0.0773
     14 C         140.7671  141.2018  167.9548 C.3     1  UNL1        0.1007
     15 N         141.9615  141.5681  168.7850 N.3     1  UNL1       -0.2688
     16 C         142.3866  141.3157  170.2012 C.3     1  UNL1        0.0738
     17 C         143.6506  142.0862  169.9590 C.3     1  UNL1        0.0347
     18 C         143.2255  142.3386  168.5429 C.3     1  UNL1        0.0738
     19 C         140.0320  144.5749  158.0385 C.2     1  UNL1        0.2495
     20 O         139.2645  143.7739  157.0289 O.2     1  UNL1       -0.2698
     21 N         140.6944  145.8577  157.6316 N.am    1  UNL1       -0.2794
     22 H         141.1981  146.3834  158.2943 H       1  UNL1        0.1552
     23 C         140.5893  146.3395  156.2150 C.ar    1  UNL1        0.0636
     24 C         141.4201  145.7006  155.1419 C.ar    1  UNL1        0.0159
     25 C         141.3150  146.1825  153.7252 C.ar    1  UNL1        0.0014
     26 C         140.3792  147.3033  153.3818 C.ar    1  UNL1        0.0013
     27 C         139.5484  147.9422  154.4549 C.ar    1  UNL1        0.0153
     28 C         139.6535  147.4604  155.8714 C.ar    1  UNL1        0.0552
     29 N         138.8227  148.0994  156.9445 N.pl3   1  UNL1       -0.3560
     30 H         138.2085  148.8350  156.7191 H       1  UNL1        0.1424
     31 H         138.8916  147.7831  157.8743 H       1  UNL1        0.1424
@<TRIPOS>BOND
     1     7     8    1
     2     8     9   ar
     3     9    10   ar
     4    10    14    1
     5    14    15    1
     6    15    16    1
     7    16    17    1
     8    17    18    1
     9    10    11   ar
    10    11    12   ar
    11    12    13   ar
    12    13     1    1
    13     1     2   ar
    14     2     3   ar
    15     3     4   ar
    16     4    19    1
    17    19    20    2
    18    19    21   am
    19    21    23    1
    20    23    24   ar
    21    24    25   ar
    22    25    26   ar
    23    26    27   ar
    24    27    28   ar
    25    28    29    1
    26     4     5   ar
    27     5     6   ar
    28    13     8   ar
    29     6     1   ar
    30    18    15    1
    31    28    23   ar
    32    21    22    1
    33    29    30    1
    34    29    31    1
@<TRIPOS>MOLECULE
*****
 31 34 0 0 0
SMALL
GASTEIGER

@<TRIPOS>ATOM
      1 C         141.6569  138.7323  161.7819 C.ar    1  UNL1        0.0173
      2 C         142.0667  140.1133  162.2001 C.ar    1  UNL1        0.0016
      3 C         142.2261  140.4399  163.6554 C.ar    1  UNL1        0.0046
      4 C         141.9757  139.3855  164.6926 C.ar    1  UNL1        0.0537
      5 C         141.5660  138.0045  164.2743 C.ar    1  UNL1        0.0046
      6 C         141.4066  137.6779  162.8190 C.ar    1  UNL1        0.0016
      7 C         138.9989  139.1079  160.4426 C.3     1  UNL1        0.0326
      8 C         140.1686  138.5935  159.6569 C.ar    1  UNL1       -0.0044
      9 C         140.0092  138.2669  158.2017 C.ar    1  UNL1       -0.0041
     10 C         141.1789  137.7526  157.4160 C.ar    1  UNL1        0.0127
     11 C         142.5079  137.5648  158.0856 C.ar    1  UNL1        0.0959
     12 N         142.6672  137.8913  159.5409 N.ar    1  UNL1       -0.2444
     13 C         141.4976  138.4057  160.3266 C.ar    1  UNL1        0.0773
     14 C         141.0195  137.4260  155.9606 C.3     1  UNL1        0.1007
     15 N         141.7051  136.2236  155.3823 N.3     1  UNL1       -0.2688
     16 C         142.9835  135.9895  154.6333 C.3     1  UNL1        0.0738
     17 C         142.6746  134.5233  154.5646 C.3     1  UNL1        0.0347
     18 C         141.3963  134.7574  155.3135 C.3     1  UNL1        0.0738
     19 C         142.1351  139.7121  166.1478 C.2     1  UNL1        0.2495
     20 O         143.0419  138.8826  167.0077 O.2     1  UNL1       -0.2698
     21 N         141.3877  140.8683  166.7433 N.am    1  UNL1       -0.2794
     22 H         140.7925  141.4128  166.1789 H       1  UNL1        0.1552
     23 C         141.5470  141.1949  168.1985 C.ar    1  UNL1        0.0636
     24 C         142.6827  142.0635  168.6523 C.ar    1  UNL1        0.0159
     25 C         142.8420  142.3901  170.1076 C.ar    1  UNL1        0.0014
     26 C         141.8658  141.8482  171.1092 C.ar    1  UNL1        0.0013
     27 C         140.7301  140.9796  170.6554 C.ar    1  UNL1        0.0153
     28 C         140.5708  140.6530  169.2002 C.ar    1  UNL1        0.0552
     29 N         139.4351  139.7844  168.7464 N.pl3   1  UNL1       -0.3560
     30 H         138.7944  139.4287  169.4038 H       1  UNL1        0.1424
     31 H         139.3305  139.5700  167.7913 H       1  UNL1        0.1424
@<TRIPOS>BOND
     1     7     8    1
     2     8     9   ar
     3     9    10   ar
     4    10    14    1
     5    14    15    1
     6    15    16    1
     7    16    17    1
     8    17    18    1
     9    10    11   ar
    10    11    12   ar
    11    12    13   ar
    12    13     1    1
    13     1     2   ar
    14     2     3   ar
    15     3     4   ar
    16     4    19    1
    17    19    20    2
    18    19    21   am
    19    21    23    1
    20    23    24   ar
    21    24    25   ar
    22    25    26   ar
    23    26    27   ar
    24    27    28   ar
    25    28    29    1
    26     4     5   ar
    27     5     6   ar
    28    13     8   ar
    29     6     1   ar
    30    18    15    1
    31    28    23   ar
    32    21    22    1
    33    29    30    1
    34    29    31    1
@<TRIPOS>MOLECULE
*****
 31 34 0 0 0
SMALL
GASTEIGER

@<TRIPOS>ATOM
      1 C         139.5999  141.3930  162.1082 C.ar    1  UNL1        0.0173
      2 C         138.8050  140.1614  161.7899 C.ar    1  UNL1        0.0016
      3 C         138.2341  139.9716  160.4159 C.ar    1  UNL1        0.0046
      4 C         138.4582  141.0133  159.3601 C.ar    1  UNL1        0.0537
      5 C         139.2531  142.2449  159.6784 C.ar    1  UNL1        0.0046
      6 C         139.8239  142.4347  161.0525 C.ar    1  UNL1        0.0016
      7 C         137.9802  142.7632  164.2294 C.3     1  UNL1        0.0326
      8 C         139.3609  142.2680  164.5429 C.ar    1  UNL1       -0.0044
      9 C         139.9318  142.4578  165.9169 C.ar    1  UNL1       -0.0041
     10 C         141.3125  141.9625  166.2304 C.ar    1  UNL1        0.0127
     11 C         142.1224  141.2774  165.1699 C.ar    1  UNL1        0.0959
     12 N         141.5515  141.0876  163.7959 N.ar    1  UNL1       -0.2444
     13 C         140.1708  141.5829  163.4823 C.ar    1  UNL1        0.0773
     14 C         141.8834  142.1523  167.6045 C.3     1  UNL1        0.1007
     15 N         140.9701  142.3997  168.7685 N.3     1  UNL1       -0.2688
     16 C         140.1391  141.5329  169.6676 C.3     1  UNL1        0.0738
     17 C         139.6786  142.7494  170.4145 C.3     1  UNL1        0.0347
     18 C         140.5095  143.6161  169.5155 C.3     1  UNL1        0.0738
     19 C         137.8873  140.8234  157.9860 C.2     1  UNL1        0.2495
     20 O         138.3334  139.6666  157.1419 O.2     1  UNL1       -0.2698
     21 N         136.8704  141.7904  157.4561 N.am    1  UNL1       -0.2794
     22 H         136.5776  142.5497  158.0102 H       1  UNL1        0.1552
     23 C         136.2995  141.6006  156.0821 C.ar    1  UNL1        0.0636
     24 C         136.9023  142.3220  154.9132 C.ar    1  UNL1        0.0159
     25 C         136.3313  142.1321  153.5391 C.ar    1  UNL1        0.0014
     26 C         135.1577  141.2208  153.3340 C.ar    1  UNL1        0.0013
     27 C         134.5550  140.4993  154.5028 C.ar    1  UNL1        0.0153
     28 C         135.1259  140.6892  155.8769 C.ar    1  UNL1        0.0552
     29 N         134.5231  139.9678  157.0457 N.pl3   1  UNL1       -0.3560
     30 H         133.7529  139.3696  156.9111 H       1  UNL1        0.1424
     31 H         134.8978  140.0924  157.9476 H       1  UNL1        0.1424
@<TRIPOS>BOND
     1     7     8    1
     2     8     9   ar
     3     9    10   ar
     4    10    14    1
     5    14    15    1
     6    15    16    1
     7    16    17    1
     8    17    18    1
     9    10    11   ar
    10    11    12   ar
    11    12    13   ar
    12    13     1    1
    13     1     2   ar
    14     2     3   ar
    15     3     4   ar
    16     4    19    1
    17    19    20    2
    18    19    21   am
    19    21    23    1
    20    23    24   ar
    21    24    25   ar
    22    25    26   ar
    23    26    27   ar
    24    27    28   ar
    25    28    29    1
    26     4     5   ar
    27     5     6   ar
    28    13     8   ar
    29     6     1   ar
    30    18    15    1
    31    28    23   ar
    32    21    22    1
    33    29    30    1
    34    29    31    1
@<TRIPOS>MOLECULE
*****
 31 34 0 0 0
SMALL
GASTEIGER

@<TRIPOS>ATOM
      1 C         141.8743  139.8300  158.7242 C.ar    1  UNL1        0.0173
      2 C         142.1376  138.5607  159.4788 C.ar    1  UNL1        0.0016
      3 C         142.6103  137.3385  158.7489 C.ar    1  UNL1        0.0046
      4 C         142.8196  137.3856  157.2642 C.ar    1  UNL1        0.0537
      5 C         142.5563  138.6550  156.5096 C.ar    1  UNL1        0.0046
      6 C         142.0836  139.8772  157.2396 C.ar    1  UNL1        0.0016
      7 C         143.8563  141.8772  159.6625 C.3     1  UNL1        0.0326
      8 C         142.3926  142.0758  159.9233 C.ar    1  UNL1       -0.0044
      9 C         141.9199  143.2979  160.6533 C.ar    1  UNL1       -0.0041
     10 C         140.4561  143.4965  160.9141 C.ar    1  UNL1        0.0127
     11 C         139.4651  142.4729  160.4449 C.ar    1  UNL1        0.0959
     12 N         139.9378  141.2508  159.7150 N.ar    1  UNL1       -0.2444
     13 C         141.4016  141.0522  159.4542 C.ar    1  UNL1        0.0773
     14 C         139.9834  144.7187  161.6441 C.3     1  UNL1        0.1007
     15 N         139.2062  144.5770  162.9191 N.3     1  UNL1       -0.2688
     16 C         139.5311  144.6981  164.3785 C.3     1  UNL1        0.0738
     17 C         138.1069  144.3766  164.7223 C.3     1  UNL1        0.0347
     18 C         137.7820  144.2554  163.2630 C.3     1  UNL1        0.0738
     19 C         143.2923  136.1634  156.5343 C.2     1  UNL1        0.2495
     20 O         144.4011  136.2717  155.5300 O.2     1  UNL1       -0.2698
     21 N         142.6562  134.8330  156.8088 N.am    1  UNL1       -0.2794
     22 H         141.9284  134.7620  157.4680 H       1  UNL1        0.1552
     23 C         143.1289  133.6109  156.0789 C.ar    1  UNL1        0.0636
     24 C         142.5035  133.2304  154.7696 C.ar    1  UNL1        0.0159
     25 C         142.9762  132.0082  154.0397 C.ar    1  UNL1        0.0014
     26 C         144.0743  131.1664  154.6190 C.ar    1  UNL1        0.0013
     27 C         144.6996  131.5469  155.9283 C.ar    1  UNL1        0.0153
     28 C         144.2270  132.7690  156.6582 C.ar    1  UNL1        0.0552
     29 N         144.8523  133.1494  157.9675 N.pl3   1  UNL1       -0.3560
     30 H         145.5730  132.5970  158.3477 H       1  UNL1        0.1424
     31 H         144.5421  133.9516  158.4465 H       1  UNL1        0.1424
@<TRIPOS>BOND
     1     7     8    1
     2     8     9   ar
     3     9    10   ar
     4    10    14    1
     5    14    15    1
     6    15    16    1
     7    16    17    1
     8    17    18    1
     9    10    11   ar
    10    11    12   ar
    11    12    13   ar
    12    13     1    1
    13     1     2   ar
    14     2     3   ar
    15     3     4   ar
    16     4    19    1
    17    19    20    2
    18    19    21   am
    19    21    23    1
    20    23    24   ar
    21    24    25   ar
    22    25    26   ar
    23    26    27   ar
    24    27    28   ar
    25    28    29    1
    26     4     5   ar
    27     5     6   ar
    28    13     8   ar
    29     6     1   ar
    30    18    15    1
    31    28    23   ar
    32    21    22    1
    33    29    30    1
    34    29    31    1
