@<TRIPOS>MOLECULE
*****
 25 27 0 0 0
SMALL
GASTEIGER

@<TRIPOS>ATOM
      1 C         138.3448  140.0367  165.2859 C.ar    1  UNL1        0.2426
      2 N         137.8165  138.9159  166.1313 N.ar    1  UNL1       -0.1099
      3 N         138.4461  139.0225  167.4887 N.ar    1  UNL1       -0.1071
      4 C         139.3635  140.2093  167.4822 C.ar    1  UNL1        0.2518
      5 O         139.3009  140.8361  166.1209 O.2     1  UNL1       -0.4180
      6 C         140.1970  140.6856  168.6346 C.ar    1  UNL1        0.0834
      7 C         141.5739  141.2283  168.3906 C.ar    1  UNL1        0.0184
      8 C         142.4075  141.7046  169.5431 C.ar    1  UNL1        0.0580
      9 CL        143.7844  142.2473  169.2990 Cl      1  UNL1       -0.0822
     10 C         141.8642  141.6382  170.9396 C.ar    1  UNL1        0.0137
     11 C         140.4873  141.0954  171.1838 C.ar    1  UNL1        0.0307
     12 C         139.6537  140.6192  170.0312 C.ar    1  UNL1        0.1447
     13 F         138.2768  140.0764  170.2753 F       1  UNL1       -0.2040
     14 C         137.9810  140.3102  163.8567 C.3     1  UNL1        0.1604
     15 C         139.9982  145.2667  161.1431 C.2     1  UNL1        0.4049
     16 O         139.2629  146.5637  161.3072 O.2     1  UNL1       -0.2262
     17 N         139.4939  144.0276  161.8215 N.am    1  UNL1       -0.2432
     18 C         140.2292  142.7306  161.6574 C.3     1  UNL1        0.1141
     19 C         139.7249  141.4914  162.3358 C.3     1  UNL1        0.0944
     20 N         138.4853  141.5493  163.1783 N.3     1  UNL1       -0.2619
     21 C         137.7500  142.8464  163.3424 C.3     1  UNL1        0.0944
     22 C         138.2543  144.0855  162.6640 C.3     1  UNL1        0.1141
     23 O         141.2379  145.2088  160.3006 O.3     1  UNL1       -0.4345
     24 C         140.3239  145.8924  157.9666 C.3     1  UNL1        0.0513
     25 C         141.1308  144.9635  158.8246 C.3     1  UNL1        0.2102
@<TRIPOS>BOND
     1    24    25    1
     2    25    23    1
     3    23    15    1
     4    15    16    2
     5    15    17   am
     6    17    18    1
     7    18    19    1
     8    19    20    1
     9    20    14    1
    10    14     1    1
    11     1     2   ar
    12     2     3   ar
    13     3     4   ar
    14     4     6    1
    15     6     7   ar
    16     7     8   ar
    17     8     9    1
    18     8    10   ar
    19    10    11   ar
    20    11    12   ar
    21    12    13    1
    22     4     5   ar
    23    20    21    1
    24    21    22    1
    25    22    17    1
    26     5     1   ar
    27    12     6   ar
@<TRIPOS>MOLECULE
*****
 25 27 0 0 0
SMALL
GASTEIGER

@<TRIPOS>ATOM
      1 C         138.7178  138.4332  166.2229 C.ar    1  UNL1        0.2426
      2 N         137.8046  138.4728  167.4123 N.ar    1  UNL1       -0.1099
      3 N         138.3979  139.4112  168.4211 N.ar    1  UNL1       -0.1071
      4 C         139.6777  139.9515  167.8551 C.ar    1  UNL1        0.2518
      5 O         139.8754  139.3471  166.4966 O.2     1  UNL1       -0.4180
      6 C         140.5981  140.9252  168.5293 C.ar    1  UNL1        0.0834
      7 C         140.0759  142.2522  168.9942 C.ar    1  UNL1        0.0184
      8 C         140.9963  143.2260  169.6684 C.ar    1  UNL1        0.0580
      9 CL        140.4741  144.5530  170.1334 Cl      1  UNL1       -0.0822
     10 C         142.4390  142.8727  169.8777 C.ar    1  UNL1        0.0137
     11 C         142.9613  141.5456  169.4127 C.ar    1  UNL1        0.0307
     12 C         142.0408  140.5719  168.7385 C.ar    1  UNL1        0.1447
     13 F         142.5631  139.2448  168.2736 F       1  UNL1       -0.2040
     14 C         138.5098  137.6221  164.9783 C.3     1  UNL1        0.1604
     15 C         142.3606  138.1076  160.4028 C.2     1  UNL1        0.4049
     16 O         143.8300  137.9166  160.6357 O.2     1  UNL1       -0.2262
     17 N         141.3979  137.9862  161.5467 N.am    1  UNL1       -0.2432
     18 C         139.9285  138.1772  161.3138 C.3     1  UNL1        0.1141
     19 C         138.9658  138.0558  162.4576 C.3     1  UNL1        0.0944
     20 N         139.4725  137.7435  163.8344 N.3     1  UNL1       -0.2619
     21 C         140.9419  137.5525  164.0674 C.3     1  UNL1        0.0944
     22 C         141.9046  137.6739  162.9235 C.3     1  UNL1        0.1141
     23 O         141.8539  138.4200  159.0260 O.3     1  UNL1       -0.4345
     24 C         141.7444  137.8526  156.4930 C.3     1  UNL1        0.0513
     25 C         142.3485  137.6334  157.8484 C.3     1  UNL1        0.2102
@<TRIPOS>BOND
     1    24    25    1
     2    25    23    1
     3    23    15    1
     4    15    16    2
     5    15    17   am
     6    17    18    1
     7    18    19    1
     8    19    20    1
     9    20    14    1
    10    14     1    1
    11     1     2   ar
    12     2     3   ar
    13     3     4   ar
    14     4     6    1
    15     6     7   ar
    16     7     8   ar
    17     8     9    1
    18     8    10   ar
    19    10    11   ar
    20    11    12   ar
    21    12    13    1
    22     4     5   ar
    23    20    21    1
    24    21    22    1
    25    22    17    1
    26     5     1   ar
    27    12     6   ar
@<TRIPOS>MOLECULE
*****
 25 27 0 0 0
SMALL
GASTEIGER

@<TRIPOS>ATOM
      1 C         142.6874  137.6959  157.2678 C.ar    1  UNL1        0.2426
      2 N         143.8218  137.9676  156.3248 N.ar    1  UNL1       -0.1099
      3 N         144.2876  136.6543  155.7693 N.ar    1  UNL1       -0.1071
      4 C         143.4409  135.5709  156.3691 C.ar    1  UNL1        0.2518
      5 O         142.4520  136.2147  157.2952 O.2     1  UNL1       -0.4180
      6 C         143.5619  134.1019  156.0915 C.ar    1  UNL1        0.0834
      7 C         143.1665  133.5568  154.7511 C.ar    1  UNL1        0.0184
      8 C         143.2875  132.0877  154.4735 C.ar    1  UNL1        0.0580
      9 CL        142.8921  131.5426  153.1332 Cl      1  UNL1       -0.0822
     10 C         143.8040  131.1637  155.5363 C.ar    1  UNL1        0.0137
     11 C         144.1994  131.7087  156.8767 C.ar    1  UNL1        0.0307
     12 C         144.0784  133.1779  157.1542 C.ar    1  UNL1        0.1447
     13 F         144.4738  133.7229  158.4946 F       1  UNL1       -0.2040
     14 C         141.9227  138.7247  158.0467 C.3     1  UNL1        0.1604
     15 C         140.2650  137.5868  163.6998 C.2     1  UNL1        0.4049
     16 O         141.2798  137.1145  164.6983 O.2     1  UNL1       -0.2262
     17 N         140.6794  137.8713  162.2865 N.am    1  UNL1       -0.2432
     18 C         139.6646  138.3435  161.2880 C.3     1  UNL1        0.1141
     19 C         140.0791  138.6280  159.8747 C.3     1  UNL1        0.0944
     20 N         141.5083  138.4402  159.4600 N.3     1  UNL1       -0.2619
     21 C         142.5231  137.9680  160.4585 C.3     1  UNL1        0.0944
     22 C         142.1086  137.6835  161.8718 C.3     1  UNL1        0.1141
     23 O         138.8358  137.7745  164.1145 O.3     1  UNL1       -0.4345
     24 C         138.0734  138.6524  166.4379 C.3     1  UNL1        0.0513
     25 C         138.4591  138.9155  165.0123 C.3     1  UNL1        0.2102
@<TRIPOS>BOND
     1    24    25    1
     2    25    23    1
     3    23    15    1
     4    15    16    2
     5    15    17   am
     6    17    18    1
     7    18    19    1
     8    19    20    1
     9    20    14    1
    10    14     1    1
    11     1     2   ar
    12     2     3   ar
    13     3     4   ar
    14     4     6    1
    15     6     7   ar
    16     7     8   ar
    17     8     9    1
    18     8    10   ar
    19    10    11   ar
    20    11    12   ar
    21    12    13    1
    22     4     5   ar
    23    20    21    1
    24    21    22    1
    25    22    17    1
    26     5     1   ar
    27    12     6   ar
@<TRIPOS>MOLECULE
*****
 25 27 0 0 0
SMALL
GASTEIGER

@<TRIPOS>ATOM
      1 C         143.0869  138.2919  157.3849 C.ar    1  UNL1        0.2426
      2 N         144.0665  138.2448  156.2499 N.ar    1  UNL1       -0.1099
      3 N         144.1843  136.8192  155.7981 N.ar    1  UNL1       -0.1071
      4 C         143.2774  135.9853  156.6540 C.ar    1  UNL1        0.2518
      5 O         142.5993  136.8955  157.6347 O.2     1  UNL1       -0.4180
      6 C         143.0830  134.5019  156.5478 C.ar    1  UNL1        0.0834
      7 C         144.0146  133.5701  157.2647 C.ar    1  UNL1        0.0184
      8 C         143.8201  132.0866  157.1585 C.ar    1  UNL1        0.0580
      9 CL        144.7517  131.1548  157.8754 Cl      1  UNL1       -0.0822
     10 C         142.6940  131.5348  156.3355 C.ar    1  UNL1        0.0137
     11 C         141.7623  132.4665  155.6185 C.ar    1  UNL1        0.0307
     12 C         141.9569  133.9501  155.7248 C.ar    1  UNL1        0.1447
     13 F         141.0252  134.8818  155.0079 F       1  UNL1       -0.2040
     14 C         142.6684  139.5198  158.1380 C.3     1  UNL1        0.1604
     15 C         145.0619  140.7053  163.5107 C.2     1  UNL1        0.4049
     16 O         145.2690  139.5975  164.5005 O.2     1  UNL1       -0.2262
     17 N         144.4636  140.4090  162.1675 N.am    1  UNL1       -0.2432
     18 C         144.2565  141.5168  161.1777 C.3     1  UNL1        0.1141
     19 C         143.6581  141.2205  159.8345 C.3     1  UNL1        0.0944
     20 N         143.2668  139.8162  159.4812 N.3     1  UNL1       -0.2619
     21 C         143.4739  138.7084  160.4709 C.3     1  UNL1        0.0944
     22 C         144.0722  139.0047  161.8141 C.3     1  UNL1        0.1141
     23 O         145.4533  142.1096  163.8641 O.3     1  UNL1       -0.4345
     24 C         143.9945  144.2132  164.3079 C.3     1  UNL1        0.0513
     25 C         144.5885  142.9204  164.7832 C.3     1  UNL1        0.2102
@<TRIPOS>BOND
     1    24    25    1
     2    25    23    1
     3    23    15    1
     4    15    16    2
     5    15    17   am
     6    17    18    1
     7    18    19    1
     8    19    20    1
     9    20    14    1
    10    14     1    1
    11     1     2   ar
    12     2     3   ar
    13     3     4   ar
    14     4     6    1
    15     6     7   ar
    16     7     8   ar
    17     8     9    1
    18     8    10   ar
    19    10    11   ar
    20    11    12   ar
    21    12    13    1
    22     4     5   ar
    23    20    21    1
    24    21    22    1
    25    22    17    1
    26     5     1   ar
    27    12     6   ar
@<TRIPOS>MOLECULE
*****
 25 27 0 0 0
SMALL
GASTEIGER

@<TRIPOS>ATOM
      1 C         138.6484  139.0972  165.4117 C.ar    1  UNL1        0.2426
      2 N         137.7724  138.5101  166.4784 N.ar    1  UNL1       -0.1099
      3 N         138.2291  139.0488  167.8018 N.ar    1  UNL1       -0.1071
      4 C         139.3874  139.9689  167.5529 C.ar    1  UNL1        0.2518
      5 O         139.6466  139.9988  166.0758 O.2     1  UNL1       -0.4180
      6 C         140.1523  140.7260  168.5977 C.ar    1  UNL1        0.0834
      7 C         141.5579  141.1716  168.3226 C.ar    1  UNL1        0.0184
      8 C         142.3227  141.9287  169.3675 C.ar    1  UNL1        0.0580
      9 CL        143.7283  142.3743  169.0924 Cl      1  UNL1       -0.0822
     10 C         141.6820  142.2403  170.6874 C.ar    1  UNL1        0.0137
     11 C         140.2763  141.7948  170.9626 C.ar    1  UNL1        0.0307
     12 C         139.5115  141.0376  169.9177 C.ar    1  UNL1        0.1447
     13 F         138.1058  140.5920  170.1929 F       1  UNL1       -0.2040
     14 C         138.5446  138.8298  163.9394 C.3     1  UNL1        0.1604
     15 C         140.1928  143.0454  160.0009 C.2     1  UNL1        0.4049
     16 O         141.2729  142.7565  159.0010 O.2     1  UNL1       -0.2262
     17 N         139.7807  141.9915  160.9855 N.am    1  UNL1       -0.2432
     18 C         138.7006  142.2805  161.9853 C.3     1  UNL1        0.1141
     19 C         138.2886  141.2266  162.9700 C.3     1  UNL1        0.0944
     20 N         138.9566  139.8837  162.9548 N.3     1  UNL1       -0.2619
     21 C         140.0368  139.5947  161.9549 C.3     1  UNL1        0.0944
     22 C         140.4488  140.6486  160.9703 C.3     1  UNL1        0.1141
     23 O         139.5247  144.3883  160.0161 O.3     1  UNL1       -0.4345
     24 C         139.8809  146.0331  161.9955 C.3     1  UNL1        0.0513
     25 C         140.2302  145.5703  160.6120 C.3     1  UNL1        0.2102
@<TRIPOS>BOND
     1    24    25    1
     2    25    23    1
     3    23    15    1
     4    15    16    2
     5    15    17   am
     6    17    18    1
     7    18    19    1
     8    19    20    1
     9    20    14    1
    10    14     1    1
    11     1     2   ar
    12     2     3   ar
    13     3     4   ar
    14     4     6    1
    15     6     7   ar
    16     7     8   ar
    17     8     9    1
    18     8    10   ar
    19    10    11   ar
    20    11    12   ar
    21    12    13    1
    22     4     5   ar
    23    20    21    1
    24    21    22    1
    25    22    17    1
    26     5     1   ar
    27    12     6   ar
@<TRIPOS>MOLECULE
*****
 25 27 0 0 0
SMALL
GASTEIGER

@<TRIPOS>ATOM
      1 C         142.8238  136.8885  157.1992 C.ar    1  UNL1        0.2426
      2 N         143.8102  137.2735  156.1368 N.ar    1  UNL1       -0.1099
      3 N         144.2974  136.0164  155.4790 N.ar    1  UNL1       -0.1071
      4 C         143.6119  134.8545  156.1350 C.ar    1  UNL1        0.2518
      5 O         142.7012  135.3935  157.1980 O.2     1  UNL1       -0.4180
      6 C         143.8036  133.4078  155.7886 C.ar    1  UNL1        0.0834
      7 C         143.1969  132.8498  154.5354 C.ar    1  UNL1        0.0184
      8 C         143.3885  131.4030  154.1891 C.ar    1  UNL1        0.0580
      9 CL        142.7818  130.8451  152.9359 Cl      1  UNL1       -0.0822
     10 C         144.1869  130.5141  155.0959 C.ar    1  UNL1        0.0137
     11 C         144.7937  131.0720  156.3492 C.ar    1  UNL1        0.0307
     12 C         144.6020  132.5189  156.6955 C.ar    1  UNL1        0.1447
     13 F         145.2088  133.0768  157.9488 F       1  UNL1       -0.2040
     14 C         142.0889  137.8327  158.1039 C.3     1  UNL1        0.1604
     15 C         144.8603  140.1797  162.8799 C.2     1  UNL1        0.4049
     16 O         145.4984  141.5339  162.7864 O.2     1  UNL1       -0.2262
     17 N         144.1674  139.5929  161.6859 N.am    1  UNL1       -0.2432
     18 C         143.5294  138.2387  161.7795 C.3     1  UNL1        0.1141
     19 C         142.8365  137.6519  160.5854 C.3     1  UNL1        0.0944
     20 N         142.7817  138.4194  159.2979 N.3     1  UNL1       -0.2619
     21 C         143.4198  139.7737  159.2043 C.3     1  UNL1        0.0944
     22 C         144.1127  140.3604  160.3983 C.3     1  UNL1        0.1141
     23 O         144.9151  139.4122  164.1675 O.3     1  UNL1       -0.4345
     24 C         143.2102  138.3634  165.8239 C.3     1  UNL1        0.0513
     25 C         143.8237  139.5734  165.1838 C.3     1  UNL1        0.2102
@<TRIPOS>BOND
     1    24    25    1
     2    25    23    1
     3    23    15    1
     4    15    16    2
     5    15    17   am
     6    17    18    1
     7    18    19    1
     8    19    20    1
     9    20    14    1
    10    14     1    1
    11     1     2   ar
    12     2     3   ar
    13     3     4   ar
    14     4     6    1
    15     6     7   ar
    16     7     8   ar
    17     8     9    1
    18     8    10   ar
    19    10    11   ar
    20    11    12   ar
    21    12    13    1
    22     4     5   ar
    23    20    21    1
    24    21    22    1
    25    22    17    1
    26     5     1   ar
    27    12     6   ar
@<TRIPOS>MOLECULE
*****
 25 27 0 0 0
SMALL
GASTEIGER

@<TRIPOS>ATOM
      1 C         138.8791  138.6434  165.5775 C.ar    1  UNL1        0.2426
      2 N         137.7697  138.4155  166.5610 N.ar    1  UNL1       -0.1099
      3 N         138.1247  139.1268  167.8331 N.ar    1  UNL1       -0.1071
      4 C         139.4535  139.7943  167.6357 C.ar    1  UNL1        0.2518
      5 O         139.9198  139.4955  166.2417 O.2     1  UNL1       -0.4180
      6 C         140.1871  140.6161  168.6536 C.ar    1  UNL1        0.0834
      7 C         141.5989  141.0496  168.3913 C.ar    1  UNL1        0.0184
      8 C         142.3326  141.8715  169.4092 C.ar    1  UNL1        0.0580
      9 CL        143.7444  142.3049  169.1469 Cl      1  UNL1       -0.0822
     10 C         141.6545  142.2600  170.6895 C.ar    1  UNL1        0.0137
     11 C         140.2425  141.8265  170.9519 C.ar    1  UNL1        0.0307
     12 C         139.5090  141.0046  169.9339 C.ar    1  UNL1        0.1447
     13 F         138.0970  140.5712  170.1963 F       1  UNL1       -0.2040
     14 C         138.9377  138.1124  164.1758 C.3     1  UNL1        0.1604
     15 C         143.1963  140.0383  160.4135 C.2     1  UNL1        0.4049
     16 O         144.1208  139.0543  159.7601 O.2     1  UNL1       -0.2262
     17 N         142.1317  139.5568  161.3541 N.am    1  UNL1       -0.2432
     18 C         141.2072  140.5409  162.0076 C.3     1  UNL1        0.1141
     19 C         140.1426  140.0594  162.9481 C.3     1  UNL1        0.0944
     20 N         140.0024  138.5938  163.2353 N.3     1  UNL1       -0.2619
     21 C         140.9268  137.6098  162.5818 C.3     1  UNL1        0.0944
     22 C         141.9914  138.0913  161.6413 C.3     1  UNL1        0.1141
     23 O         143.3365  141.5038  160.1264 O.3     1  UNL1       -0.4345
     24 C         144.1041  143.0945  162.0318 C.3     1  UNL1        0.0513
     25 C         144.4158  142.2999  160.7983 C.3     1  UNL1        0.2102
@<TRIPOS>BOND
     1    24    25    1
     2    25    23    1
     3    23    15    1
     4    15    16    2
     5    15    17   am
     6    17    18    1
     7    18    19    1
     8    19    20    1
     9    20    14    1
    10    14     1    1
    11     1     2   ar
    12     2     3   ar
    13     3     4   ar
    14     4     6    1
    15     6     7   ar
    16     7     8   ar
    17     8     9    1
    18     8    10   ar
    19    10    11   ar
    20    11    12   ar
    21    12    13    1
    22     4     5   ar
    23    20    21    1
    24    21    22    1
    25    22    17    1
    26     5     1   ar
    27    12     6   ar
@<TRIPOS>MOLECULE
*****
 25 27 0 0 0
SMALL
GASTEIGER

@<TRIPOS>ATOM
      1 C         144.0128  139.3107  165.3747 C.ar    1  UNL1        0.2426
      2 N         144.1015  138.2139  166.3942 N.ar    1  UNL1       -0.1099
      3 N         143.2730  138.6142  167.5789 N.ar    1  UNL1       -0.1071
      4 C         142.6723  139.9583  167.2916 C.ar    1  UNL1        0.2518
      5 O         143.1294  140.3888  165.9294 O.2     1  UNL1       -0.4180
      6 C         141.7724  140.7355  168.2060 C.ar    1  UNL1        0.0834
      7 C         140.5032  140.1172  168.7127 C.ar    1  UNL1        0.0184
      8 C         139.6033  140.8944  169.6271 C.ar    1  UNL1        0.0580
      9 CL        138.3340  140.2762  170.1337 Cl      1  UNL1       -0.0822
     10 C         139.9726  142.2899  170.0349 C.ar    1  UNL1        0.0137
     11 C         141.2420  142.9082  169.5282 C.ar    1  UNL1        0.0307
     12 C         142.1418  142.1309  168.6138 C.ar    1  UNL1        0.1447
     13 F         143.4111  142.7492  168.1071 F       1  UNL1       -0.2040
     14 C         144.6886  139.3266  164.0357 C.3     1  UNL1        0.1604
     15 C         142.3667  142.5528  159.5413 C.2     1  UNL1        0.4049
     16 O         141.0341  142.1811  158.9616 O.2     1  UNL1       -0.2262
     17 N         142.9471  141.7463  160.6649 N.am    1  UNL1       -0.2432
     18 C         144.2797  142.1181  161.2446 C.3     1  UNL1        0.1141
     19 C         144.8602  141.3115  162.3682 C.3     1  UNL1        0.0944
     20 N         144.1081  140.1332  162.9121 N.3     1  UNL1       -0.2619
     21 C         142.7756  139.7614  162.3324 C.3     1  UNL1        0.0944
     22 C         142.1951  140.5680  161.2088 C.3     1  UNL1        0.1141
     23 O         143.1187  143.7312  158.9974 O.3     1  UNL1       -0.4345
     24 C         141.5399  145.6525  158.2450 C.3     1  UNL1        0.0513
     25 C         142.5171  144.5661  157.9060 C.3     1  UNL1        0.2102
@<TRIPOS>BOND
     1    24    25    1
     2    25    23    1
     3    23    15    1
     4    15    16    2
     5    15    17   am
     6    17    18    1
     7    18    19    1
     8    19    20    1
     9    20    14    1
    10    14     1    1
    11     1     2   ar
    12     2     3   ar
    13     3     4   ar
    14     4     6    1
    15     6     7   ar
    16     7     8   ar
    17     8     9    1
    18     8    10   ar
    19    10    11   ar
    20    11    12   ar
    21    12    13    1
    22     4     5   ar
    23    20    21    1
    24    21    22    1
    25    22    17    1
    26     5     1   ar
    27    12     6   ar
@<TRIPOS>MOLECULE
*****
 25 27 0 0 0
SMALL
GASTEIGER

@<TRIPOS>ATOM
      1 C         142.4059  138.1270  158.0515 C.ar    1  UNL1        0.2426
      2 N         143.4702  139.1164  157.6794 N.ar    1  UNL1       -0.1099
      3 N         144.0609  139.6604  158.9465 N.ar    1  UNL1       -0.1071
      4 C         143.3616  139.0071  160.1016 C.ar    1  UNL1        0.2518
      5 O         142.3389  138.0594  159.5486 O.2     1  UNL1       -0.4180
      6 C         143.6368  139.2576  161.5547 C.ar    1  UNL1        0.0834
      7 C         144.6068  140.3272  161.9608 C.ar    1  UNL1        0.0184
      8 C         144.8820  140.5777  163.4139 C.ar    1  UNL1        0.0580
      9 CL        145.8520  141.6473  163.8200 Cl      1  UNL1       -0.0822
     10 C         144.1873  139.7585  164.4609 C.ar    1  UNL1        0.0137
     11 C         143.2172  138.6887  164.0548 C.ar    1  UNL1        0.0307
     12 C         142.9421  138.4384  162.6017 C.ar    1  UNL1        0.1447
     13 F         141.9721  137.3686  162.1956 F       1  UNL1       -0.2040
     14 C         141.5577  137.3428  157.0947 C.3     1  UNL1        0.1604
     15 C         143.5297  132.1024  154.9384 C.2     1  UNL1        0.4049
     16 O         142.8678  131.4872  153.7412 O.2     1  UNL1       -0.2262
     17 N         143.0367  133.4125  155.4775 N.am    1  UNL1       -0.2432
     18 C         143.6987  134.0277  156.6747 C.3     1  UNL1        0.1141
     19 C         143.2057  135.3378  157.2138 C.3     1  UNL1        0.0944
     20 N         142.0507  136.0327  156.5556 N.3     1  UNL1       -0.2619
     21 C         141.3888  135.4175  155.3584 C.3     1  UNL1        0.0944
     22 C         141.8818  134.1074  154.8193 C.3     1  UNL1        0.1141
     23 O         144.6847  131.4075  155.5965 O.3     1  UNL1       -0.4345
     24 C         144.7787  130.6233  158.0717 C.3     1  UNL1        0.0513
     25 C         144.4335  130.3562  156.6365 C.3     1  UNL1        0.2102
@<TRIPOS>BOND
     1    24    25    1
     2    25    23    1
     3    23    15    1
     4    15    16    2
     5    15    17   am
     6    17    18    1
     7    18    19    1
     8    19    20    1
     9    20    14    1
    10    14     1    1
    11     1     2   ar
    12     2     3   ar
    13     3     4   ar
    14     4     6    1
    15     6     7   ar
    16     7     8   ar
    17     8     9    1
    18     8    10   ar
    19    10    11   ar
    20    11    12   ar
    21    12    13    1
    22     4     5   ar
    23    20    21    1
    24    21    22    1
    25    22    17    1
    26     5     1   ar
    27    12     6   ar
