@<TRIPOS>MOLECULE
*****
 29 33 0 0 0
SMALL
GASTEIGER

@<TRIPOS>ATOM
      1 C         139.6314  140.9702  166.3164 C.ar    1  UNL1        0.0213
      2 C         138.8224  139.8994  165.6466 C.ar    1  UNL1        0.1006
      3 N         138.5312  139.9876  164.1778 N.ar    1  UNL1       -0.2246
      4 C         139.0491  141.1467  163.3788 C.ar    1  UNL1        0.1702
      5 N         138.9236  141.5006  161.9265 N.ar    1  UNL1       -0.2052
      6 C         139.6550  142.7902  161.6988 C.ar    1  UNL1        0.1647
      7 S         140.2327  143.2332  163.0104 S.2     1  UNL1       -0.0499
      8 C         139.8582  142.2175  164.0486 C.ar    1  UNL1        0.0679
      9 C         140.1493  142.1293  165.5174 C.ar    1  UNL1        0.0112
     10 O         140.7961  140.6174  172.1917 O.3     1  UNL1       -0.4919
     11 C         140.5050  140.7056  170.7229 C.ar    1  UNL1        0.2216
     12 C         141.2721  141.6655  169.8626 C.ar    1  UNL1        0.0575
     13 C         140.9809  141.7536  168.3937 C.ar    1  UNL1        0.0064
     14 C         139.9226  140.8820  167.7853 C.ar    1  UNL1        0.0209
     15 C         139.1555  139.9222  168.6456 C.ar    1  UNL1        0.1021
     16 N         139.4466  139.8340  170.1144 N.ar    1  UNL1       -0.2103
     17 H         141.4572  141.1619  172.5718 H       1  UNL1        0.2937
     18 N         139.7860  143.5103  160.3895 N.pl3   1  UNL1       -0.2880
     19 C         139.2699  142.8781  159.1309 C.3     1  UNL1        0.0940
     20 C         139.4008  143.5982  157.8216 C.3     1  UNL1        0.0375
     21 C         140.0478  144.9505  157.7709 C.3     1  UNL1        0.0609
     22 C         140.5639  145.5827  159.0294 C.3     1  UNL1        0.0375
     23 C         140.4330  144.8626  160.3387 C.3     1  UNL1        0.0940
     24 N         140.1787  145.6706  156.4615 N.3     1  UNL1       -0.2738
     25 C         139.4252  146.9466  156.2288 C.3     1  UNL1        0.0720
     26 C         139.5561  147.6667  154.9195 C.3     1  UNL1        0.0174
     27 C         140.4405  147.1109  153.8430 C.3     1  UNL1        0.0029
     28 C         141.1940  145.8350  154.0758 C.3     1  UNL1        0.0174
     29 C         141.0631  145.1148  155.3851 C.3     1  UNL1        0.0720
@<TRIPOS>BOND
     1    10    11    1
     2    11    12   ar
     3    12    13   ar
     4    13    14   ar
     5    14     1    1
     6     1     2   ar
     7     2     3   ar
     8     3     4   ar
     9     4     5   ar
    10     5     6   ar
    11     6    18    1
    12    18    19    1
    13    19    20    1
    14    20    21    1
    15    21    24    1
    16    24    25    1
    17    25    26    1
    18    26    27    1
    19    27    28    1
    20    28    29    1
    21    21    22    1
    22    22    23    1
    23     6     7   ar
    24     7     8   ar
    25     8     9   ar
    26    14    15   ar
    27    15    16   ar
    28    16    11   ar
    29     9     1   ar
    30     8     4   ar
    31    23    18    1
    32    29    24    1
    33    10    17    1
@<TRIPOS>MOLECULE
*****
 29 33 0 0 0
SMALL
GASTEIGER

@<TRIPOS>ATOM
      1 C         141.1856  140.3361  166.8269 C.ar    1  UNL1        0.0213
      2 C         142.3899  139.4505  166.9508 C.ar    1  UNL1        0.1006
      3 N         142.9129  138.7232  165.7477 N.ar    1  UNL1       -0.2246
      4 C         142.2317  138.8815  164.4207 C.ar    1  UNL1        0.1702
      5 N         142.5170  138.2953  163.0698 N.ar    1  UNL1       -0.2052
      6 C         141.4890  138.8186  162.1110 C.ar    1  UNL1        0.1647
      7 S         140.5684  139.7282  162.8693 S.2     1  UNL1       -0.0499
      8 C         141.0274  139.7671  164.2968 C.ar    1  UNL1        0.0679
      9 C         140.5044  140.4944  165.4999 C.ar    1  UNL1        0.0112
     10 O         139.0933  143.2454  171.6392 O.3     1  UNL1       -0.4919
     11 C         139.6164  142.5182  170.4361 C.ar    1  UNL1        0.2216
     12 C         140.4771  143.2376  169.4403 C.ar    1  UNL1        0.0575
     13 C         141.0001  142.5102  168.2372 C.ar    1  UNL1        0.0064
     14 C         140.6625  141.0635  168.0300 C.ar    1  UNL1        0.0209
     15 C         139.8018  140.3441  169.0258 C.ar    1  UNL1        0.1021
     16 N         139.2788  141.0714  170.2288 N.ar    1  UNL1       -0.2103
     17 H         139.3042  144.1492  171.7687 H       1  UNL1        0.2937
     18 N         141.3976  138.4901  160.6502 N.pl3   1  UNL1       -0.2880
     19 C         140.0878  138.6245  159.9317 C.3     1  UNL1        0.0940
     20 C         139.9963  138.2960  158.4711 C.3     1  UNL1        0.0375
     21 C         141.2148  137.8331  157.7288 C.3     1  UNL1        0.0609
     22 C         142.5247  137.6986  158.4472 C.3     1  UNL1        0.0375
     23 C         142.6161  138.0272  159.9079 C.3     1  UNL1        0.0940
     24 N         141.1234  137.5045  156.2680 N.3     1  UNL1       -0.2738
     25 C         142.3672  137.4559  155.4310 C.3     1  UNL1        0.0720
     26 C         142.2759  137.1274  153.9703 C.3     1  UNL1        0.0174
     27 C         140.9408  136.8475  153.3466 C.3     1  UNL1        0.0029
     28 C         139.6970  136.8961  154.1836 C.3     1  UNL1        0.0174
     29 C         139.7883  137.2246  155.6443 C.3     1  UNL1        0.0720
@<TRIPOS>BOND
     1    10    11    1
     2    11    12   ar
     3    12    13   ar
     4    13    14   ar
     5    14     1    1
     6     1     2   ar
     7     2     3   ar
     8     3     4   ar
     9     4     5   ar
    10     5     6   ar
    11     6    18    1
    12    18    19    1
    13    19    20    1
    14    20    21    1
    15    21    24    1
    16    24    25    1
    17    25    26    1
    18    26    27    1
    19    27    28    1
    20    28    29    1
    21    21    22    1
    22    22    23    1
    23     6     7   ar
    24     7     8   ar
    25     8     9   ar
    26    14    15   ar
    27    15    16   ar
    28    16    11   ar
    29     9     1   ar
    30     8     4   ar
    31    23    18    1
    32    29    24    1
    33    10    17    1
@<TRIPOS>MOLECULE
*****
 29 33 0 0 0
SMALL
GASTEIGER

@<TRIPOS>ATOM
      1 C         142.0026  141.9306  166.5862 C.ar    1  UNL1        0.0213
      2 C         143.3978  142.4811  166.6003 C.ar    1  UNL1        0.1006
      3 N         143.9574  143.1378  165.3733 N.ar    1  UNL1       -0.2246
      4 C         143.1217  143.2440  164.1322 C.ar    1  UNL1        0.1702
      5 N         143.4012  143.8331  162.7812 N.ar    1  UNL1       -0.2052
      6 C         142.1788  143.6466  161.9323 C.ar    1  UNL1        0.1647
      7 S         141.1437  142.9423  162.7585 S.2     1  UNL1       -0.0499
      8 C         141.7264  142.6935  164.1181 C.ar    1  UNL1        0.0679
      9 C         141.1669  142.0368  165.3451 C.ar    1  UNL1        0.0112
     10 O         139.7644  139.3036  171.4943 O.3     1  UNL1       -0.4919
     11 C         140.3239  139.9603  170.2673 C.ar    1  UNL1        0.2216
     12 C         139.4107  140.3518  169.1436 C.ar    1  UNL1        0.0575
     13 C         139.9703  141.0086  167.9165 C.ar    1  UNL1        0.0064
     14 C         141.4430  141.2738  167.8132 C.ar    1  UNL1        0.0209
     15 C         142.3562  140.8823  168.9370 C.ar    1  UNL1        0.1021
     16 N         141.7967  140.2256  170.1640 N.ar    1  UNL1       -0.2103
     17 H         138.8444  139.1379  171.5588 H       1  UNL1        0.2937
     18 N         142.0193  144.0871  160.5073 N.pl3   1  UNL1       -0.2880
     19 C         140.9750  145.1024  160.1485 C.3     1  UNL1        0.0940
     20 C         140.8155  145.5429  158.7236 C.3     1  UNL1        0.0375
     21 C         141.7003  144.9681  157.6574 C.3     1  UNL1        0.0609
     22 C         142.7446  143.9529  158.0162 C.3     1  UNL1        0.0375
     23 C         142.9041  143.5124  159.4411 C.3     1  UNL1        0.0940
     24 N         141.5408  145.4086  156.2324 N.3     1  UNL1       -0.2738
     25 C         140.4676  146.3907  155.8666 C.3     1  UNL1        0.0720
     26 C         140.3081  146.8312  154.4417 C.3     1  UNL1        0.0174
     27 C         141.2218  146.2896  153.3825 C.3     1  UNL1        0.0029
     28 C         142.2950  145.3076  153.7483 C.3     1  UNL1        0.0174
     29 C         142.4545  144.8671  155.1733 C.3     1  UNL1        0.0720
@<TRIPOS>BOND
     1    10    11    1
     2    11    12   ar
     3    12    13   ar
     4    13    14   ar
     5    14     1    1
     6     1     2   ar
     7     2     3   ar
     8     3     4   ar
     9     4     5   ar
    10     5     6   ar
    11     6    18    1
    12    18    19    1
    13    19    20    1
    14    20    21    1
    15    21    24    1
    16    24    25    1
    17    25    26    1
    18    26    27    1
    19    27    28    1
    20    28    29    1
    21    21    22    1
    22    22    23    1
    23     6     7   ar
    24     7     8   ar
    25     8     9   ar
    26    14    15   ar
    27    15    16   ar
    28    16    11   ar
    29     9     1   ar
    30     8     4   ar
    31    23    18    1
    32    29    24    1
    33    10    17    1
@<TRIPOS>MOLECULE
*****
 29 33 0 0 0
SMALL
GASTEIGER

@<TRIPOS>ATOM
      1 C         142.6247  141.0961  166.2329 C.ar    1  UNL1        0.0213
      2 C         143.3617  140.0595  165.4377 C.ar    1  UNL1        0.1006
      3 N         143.4467  140.1799  163.9450 N.ar    1  UNL1       -0.2246
      4 C         142.7948  141.3369  163.2475 C.ar    1  UNL1        0.1702
      5 N         142.7113  141.7179  161.7991 N.ar    1  UNL1       -0.2052
      6 C         141.9227  142.9899  161.6992 C.ar    1  UNL1        0.1647
      7 S         141.5189  143.3951  163.0858 S.2     1  UNL1       -0.0499
      8 C         142.0579  142.3734  164.0428 C.ar    1  UNL1        0.0679
      9 C         141.9728  142.2530  165.5355 C.ar    1  UNL1        0.0112
     10 O         142.2845  140.6147  172.2040 O.3     1  UNL1       -0.4919
     11 C         142.3696  140.7350  170.7112 C.ar    1  UNL1        0.2216
     12 C         142.4455  139.5006  169.8624 C.ar    1  UNL1        0.0575
     13 C         142.5306  139.6210  168.3696 C.ar    1  UNL1        0.0064
     14 C         142.5397  140.9757  167.7257 C.ar    1  UNL1        0.0209
     15 C         142.4637  142.2101  168.5746 C.ar    1  UNL1        0.1021
     16 N         142.3787  142.0898  170.0673 N.ar    1  UNL1       -0.2103
     17 H         142.2788  139.7684  172.6062 H       1  UNL1        0.2937
     18 N         141.5954  143.7275  160.4346 N.pl3   1  UNL1       -0.2880
     19 C         142.2570  143.3373  159.1462 C.3     1  UNL1        0.0940
     20 C         141.9297  144.0747  157.8817 C.3     1  UNL1        0.0375
     21 C         140.9409  145.2024  157.9056 C.3     1  UNL1        0.0609
     22 C         140.2793  145.5925  159.1941 C.3     1  UNL1        0.0375
     23 C         140.6066  144.8551  160.4586 C.3     1  UNL1        0.0940
     24 N         140.6136  145.9399  156.6411 N.3     1  UNL1       -0.2738
     25 C         141.3773  145.6480  155.3835 C.3     1  UNL1        0.0720
     26 C         141.0501  146.3854  154.1190 C.3     1  UNL1        0.0174
     27 C         139.9590  147.4148  154.1121 C.3     1  UNL1        0.0029
     28 C         139.1953  147.7066  155.3696 C.3     1  UNL1        0.0174
     29 C         139.5225  146.9692  156.6341 C.3     1  UNL1        0.0720
@<TRIPOS>BOND
     1    10    11    1
     2    11    12   ar
     3    12    13   ar
     4    13    14   ar
     5    14     1    1
     6     1     2   ar
     7     2     3   ar
     8     3     4   ar
     9     4     5   ar
    10     5     6   ar
    11     6    18    1
    12    18    19    1
    13    19    20    1
    14    20    21    1
    15    21    24    1
    16    24    25    1
    17    25    26    1
    18    26    27    1
    19    27    28    1
    20    28    29    1
    21    21    22    1
    22    22    23    1
    23     6     7   ar
    24     7     8   ar
    25     8     9   ar
    26    14    15   ar
    27    15    16   ar
    28    16    11   ar
    29     9     1   ar
    30     8     4   ar
    31    23    18    1
    32    29    24    1
    33    10    17    1
@<TRIPOS>MOLECULE
*****
 29 33 0 0 0
SMALL
GASTEIGER

@<TRIPOS>ATOM
      1 C         142.6232  141.0431  166.1517 C.ar    1  UNL1        0.0213
      2 C         143.2741  139.9717  165.3281 C.ar    1  UNL1        0.1006
      3 N         143.3111  140.0931  163.8335 N.ar    1  UNL1       -0.2246
      4 C         142.6973  141.2860  163.1625 C.ar    1  UNL1        0.1702
      5 N         142.5817  141.6766  161.7188 N.ar    1  UNL1       -0.2052
      6 C         141.8593  142.9894  161.6502 C.ar    1  UNL1        0.1647
      7 S         141.5285  143.4102  163.0515 S.2     1  UNL1       -0.0499
      8 C         142.0464  142.3574  163.9861 C.ar    1  UNL1        0.0679
      9 C         142.0093  142.2359  165.4807 C.ar    1  UNL1        0.0112
     10 O         142.4750  140.5572  172.1302 O.3     1  UNL1       -0.4919
     11 C         142.5121  140.6787  170.6356 C.ar    1  UNL1        0.2216
     12 C         142.4066  142.0285  169.9900 C.ar    1  UNL1        0.0575
     13 C         142.4437  142.1500  168.4953 C.ar    1  UNL1        0.0064
     14 C         142.5862  140.9216  167.6463 C.ar    1  UNL1        0.0209
     15 C         142.6916  139.5718  168.2920 C.ar    1  UNL1        0.1021
     16 N         142.6546  139.4503  169.7865 N.ar    1  UNL1       -0.2103
     17 H         142.3860  141.3245  172.6605 H       1  UNL1        0.2937
     18 N         141.5263  143.7483  160.3999 N.pl3   1  UNL1       -0.2880
     19 C         140.5621  144.8961  160.4536 C.3     1  UNL1        0.0940
     20 C         140.2290  145.6549  159.2034 C.3     1  UNL1        0.0375
     21 C         140.8601  145.2660  157.8994 C.3     1  UNL1        0.0609
     22 C         141.8243  144.1182  157.8457 C.3     1  UNL1        0.0375
     23 C         142.1574  143.3593  159.0959 C.3     1  UNL1        0.0940
     24 N         140.5270  146.0249  156.6491 N.3     1  UNL1       -0.2738
     25 C         139.4109  147.0270  156.6549 C.3     1  UNL1        0.0720
     26 C         139.0778  147.7858  155.4046 C.3     1  UNL1        0.0174
     27 C         139.8609  147.5426  154.1486 C.3     1  UNL1        0.0029
     28 C         140.9770  146.5405  154.1429 C.3     1  UNL1        0.0174
     29 C         141.3101  145.7817  155.3931 C.3     1  UNL1        0.0720
@<TRIPOS>BOND
     1    10    11    1
     2    11    12   ar
     3    12    13   ar
     4    13    14   ar
     5    14     1    1
     6     1     2   ar
     7     2     3   ar
     8     3     4   ar
     9     4     5   ar
    10     5     6   ar
    11     6    18    1
    12    18    19    1
    13    19    20    1
    14    20    21    1
    15    21    24    1
    16    24    25    1
    17    25    26    1
    18    26    27    1
    19    27    28    1
    20    28    29    1
    21    21    22    1
    22    22    23    1
    23     6     7   ar
    24     7     8   ar
    25     8     9   ar
    26    14    15   ar
    27    15    16   ar
    28    16    11   ar
    29     9     1   ar
    30     8     4   ar
    31    23    18    1
    32    29    24    1
    33    10    17    1
@<TRIPOS>MOLECULE
*****
 29 33 0 0 0
SMALL
GASTEIGER

@<TRIPOS>ATOM
      1 C         140.3635  139.7982  166.4719 C.ar    1  UNL1        0.0213
      2 C         138.9004  139.9451  166.1758 C.ar    1  UNL1        0.1006
      3 N         138.3932  139.7367  164.7796 N.ar    1  UNL1       -0.2246
      4 C         139.3491  139.3815  163.6796 C.ar    1  UNL1        0.1702
      5 N         139.1433  139.1174  162.2174 N.ar    1  UNL1       -0.2052
      6 C         140.4792  138.8074  161.6099 C.ar    1  UNL1        0.1647
      7 S         141.5107  138.8798  162.6966 S.2     1  UNL1       -0.0499
      8 C         140.8122  139.2347  163.9757 C.ar    1  UNL1        0.0679
      9 C         141.3194  139.4430  165.3719 C.ar    1  UNL1        0.0112
     10 O         142.3926  140.6316  172.0566 O.3     1  UNL1       -0.4919
     11 C         141.8853  140.4233  170.6605 C.ar    1  UNL1        0.2216
     12 C         140.4104  140.4400  170.3881 C.ar    1  UNL1        0.0575
     13 C         139.9031  140.2317  168.9919 C.ar    1  UNL1        0.0064
     14 C         140.8708  140.0066  167.8681 C.ar    1  UNL1        0.0209
     15 C         142.3457  139.9898  168.1405 C.ar    1  UNL1        0.1021
     16 N         142.8530  140.1982  169.5366 N.ar    1  UNL1       -0.2103
     17 H         141.7881  140.7722  172.7586 H       1  UNL1        0.2937
     18 N         140.7383  138.4820  160.1686 N.pl3   1  UNL1       -0.2880
     19 C         139.6032  138.4633  159.1882 C.3     1  UNL1        0.0940
     20 C         139.8623  138.1380  157.7470 C.3     1  UNL1        0.0375
     21 C         141.2564  137.8313  157.2863 C.3     1  UNL1        0.0609
     22 C         142.3915  137.8500  158.2667 C.3     1  UNL1        0.0375
     23 C         142.1324  138.1753  159.7079 C.3     1  UNL1        0.0940
     24 N         141.5155  137.5059  155.8451 N.3     1  UNL1       -0.2738
     25 C         141.2239  136.1304  155.3226 C.3     1  UNL1        0.0720
     26 C         141.4830  135.8050  153.8815 C.3     1  UNL1        0.0174
     27 C         142.0336  136.8551  152.9628 C.3     1  UNL1        0.0029
     28 C         142.3251  138.2306  153.4852 C.3     1  UNL1        0.0174
     29 C         142.0660  138.5560  154.9264 C.3     1  UNL1        0.0720
@<TRIPOS>BOND
     1    10    11    1
     2    11    12   ar
     3    12    13   ar
     4    13    14   ar
     5    14     1    1
     6     1     2   ar
     7     2     3   ar
     8     3     4   ar
     9     4     5   ar
    10     5     6   ar
    11     6    18    1
    12    18    19    1
    13    19    20    1
    14    20    21    1
    15    21    24    1
    16    24    25    1
    17    25    26    1
    18    26    27    1
    19    27    28    1
    20    28    29    1
    21    21    22    1
    22    22    23    1
    23     6     7   ar
    24     7     8   ar
    25     8     9   ar
    26    14    15   ar
    27    15    16   ar
    28    16    11   ar
    29     9     1   ar
    30     8     4   ar
    31    23    18    1
    32    29    24    1
    33    10    17    1
@<TRIPOS>MOLECULE
*****
 29 33 0 0 0
SMALL
GASTEIGER

@<TRIPOS>ATOM
      1 C         140.4964  139.8113  166.1866 C.ar    1  UNL1        0.0213
      2 C         141.2213  138.6692  165.5385 C.ar    1  UNL1        0.1006
      3 N         141.1699  138.4968  164.0493 N.ar    1  UNL1       -0.2246
      4 C         140.3936  139.4664  163.2084 C.ar    1  UNL1        0.1702
      5 N         140.1632  139.5511  161.7285 N.ar    1  UNL1       -0.2052
      6 C         139.2958  140.7456  161.4622 C.ar    1  UNL1        0.1647
      7 S         138.9902  141.3990  162.7774 S.2     1  UNL1       -0.0499
      8 C         139.6687  140.6084  163.8565 C.ar    1  UNL1        0.0679
      9 C         139.7201  140.7809  165.3457 C.ar    1  UNL1        0.0112
     10 O         140.7020  140.5013  172.1433 O.3     1  UNL1       -0.4919
     11 C         140.6505  140.3288  170.6542 C.ar    1  UNL1        0.2216
     12 C         139.3278  140.3030  169.9474 C.ar    1  UNL1        0.0575
     13 C         139.2764  140.1305  168.4582 C.ar    1  UNL1        0.0064
     14 C         140.5478  139.9838  167.6759 C.ar    1  UNL1        0.0209
     15 C         141.8705  140.0095  168.3827 C.ar    1  UNL1        0.1021
     16 N         141.9220  140.1820  169.8718 N.ar    1  UNL1       -0.2103
     17 H         139.9078  140.5929  172.6321 H       1  UNL1        0.2937
     18 N         138.8179  141.2058  160.1169 N.pl3   1  UNL1       -0.2880
     19 C         139.0953  142.6080  159.6618 C.3     1  UNL1        0.0940
     20 C         138.6174  143.0682  158.3166 C.3     1  UNL1        0.0375
     21 C         137.8622  142.1264  157.4264 C.3     1  UNL1        0.0609
     22 C         137.5848  140.7242  157.8814 C.3     1  UNL1        0.0375
     23 C         138.0627  140.2640  159.2267 C.3     1  UNL1        0.0940
     24 N         137.3843  142.5866  156.0810 N.3     1  UNL1       -0.2738
     25 C         137.7693  143.9443  155.5725 C.3     1  UNL1        0.0720
     26 C         137.2914  144.4046  154.2273 C.3     1  UNL1        0.0174
     27 C         136.4286  143.5072  153.3905 C.3     1  UNL1        0.0029
     28 C         136.0437  142.1496  153.8990 C.3     1  UNL1        0.0174
     29 C         136.5215  141.6893  155.2443 C.3     1  UNL1        0.0720
@<TRIPOS>BOND
     1    10    11    1
     2    11    12   ar
     3    12    13   ar
     4    13    14   ar
     5    14     1    1
     6     1     2   ar
     7     2     3   ar
     8     3     4   ar
     9     4     5   ar
    10     5     6   ar
    11     6    18    1
    12    18    19    1
    13    19    20    1
    14    20    21    1
    15    21    24    1
    16    24    25    1
    17    25    26    1
    18    26    27    1
    19    27    28    1
    20    28    29    1
    21    21    22    1
    22    22    23    1
    23     6     7   ar
    24     7     8   ar
    25     8     9   ar
    26    14    15   ar
    27    15    16   ar
    28    16    11   ar
    29     9     1   ar
    30     8     4   ar
    31    23    18    1
    32    29    24    1
    33    10    17    1
@<TRIPOS>MOLECULE
*****
 29 33 0 0 0
SMALL
GASTEIGER

@<TRIPOS>ATOM
      1 C         139.0841  140.5044  164.7063 C.ar    1  UNL1        0.0213
      2 C         138.7888  139.3367  163.8124 C.ar    1  UNL1        0.1006
      3 N         138.7862  139.5143  162.3229 N.ar    1  UNL1       -0.2246
      4 C         139.0789  140.8596  161.7275 C.ar    1  UNL1        0.1702
      5 N         139.1469  141.3349  160.3064 N.ar    1  UNL1       -0.2052
      6 C         139.4841  142.7964  160.3221 C.ar    1  UNL1        0.1647
      7 S         139.6245  143.2243  161.7530 S.2     1  UNL1       -0.0499
      8 C         139.3741  142.0273  162.6215 C.ar    1  UNL1        0.0679
      9 C         139.3767  141.8497  164.1109 C.ar    1  UNL1        0.0112
     10 O         139.0945  139.7941  170.6642 O.3     1  UNL1       -0.4919
     11 C         139.0919  139.9717  169.1748 C.ar    1  UNL1        0.2216
     12 C         139.9895  140.9918  168.5395 C.ar    1  UNL1        0.0575
     13 C         139.9869  141.1694  167.0500 C.ar    1  UNL1        0.0064
     14 C         139.0867  140.3268  166.1958 C.ar    1  UNL1        0.0209
     15 C         138.1891  139.3067  166.8311 C.ar    1  UNL1        0.1021
     16 N         138.1916  139.1291  168.3205 N.ar    1  UNL1       -0.2103
     17 H         139.6568  140.3204  171.1978 H       1  UNL1        0.2937
     18 N         139.6516  143.6757  159.1184 N.pl3   1  UNL1       -0.2880
     19 C         140.3605  144.9916  159.2437 C.3     1  UNL1        0.0940
     20 C         140.5280  145.8709  158.0401 C.3     1  UNL1        0.0375
     21 C         139.9865  145.4343  156.7111 C.3     1  UNL1        0.0609
     22 C         139.2775  144.1183  156.5859 C.3     1  UNL1        0.0375
     23 C         139.1101  143.2390  157.7895 C.3     1  UNL1        0.0940
     24 N         140.1539  146.3135  155.5074 N.3     1  UNL1       -0.2738
     25 C         141.0182  145.8659  154.3661 C.3     1  UNL1        0.0720
     26 C         141.1856  146.7451  153.1624 C.3     1  UNL1        0.0174
     27 C         140.4889  148.0720  153.1001 C.3     1  UNL1        0.0029
     28 C         139.6246  148.5196  154.2414 C.3     1  UNL1        0.0174
     29 C         139.4572  147.6404  155.4451 C.3     1  UNL1        0.0720
@<TRIPOS>BOND
     1    10    11    1
     2    11    12   ar
     3    12    13   ar
     4    13    14   ar
     5    14     1    1
     6     1     2   ar
     7     2     3   ar
     8     3     4   ar
     9     4     5   ar
    10     5     6   ar
    11     6    18    1
    12    18    19    1
    13    19    20    1
    14    20    21    1
    15    21    24    1
    16    24    25    1
    17    25    26    1
    18    26    27    1
    19    27    28    1
    20    28    29    1
    21    21    22    1
    22    22    23    1
    23     6     7   ar
    24     7     8   ar
    25     8     9   ar
    26    14    15   ar
    27    15    16   ar
    28    16    11   ar
    29     9     1   ar
    30     8     4   ar
    31    23    18    1
    32    29    24    1
    33    10    17    1
@<TRIPOS>MOLECULE
*****
 29 33 0 0 0
SMALL
GASTEIGER

@<TRIPOS>ATOM
      1 C         140.6047  141.2047  166.2852 C.ar    1  UNL1        0.0213
      2 C         139.4477  140.5591  165.5820 C.ar    1  UNL1        0.1006
      3 N         139.5141  140.3067  164.1049 N.ar    1  UNL1       -0.2246
      4 C         140.7375  140.6998  163.3311 C.ar    1  UNL1        0.1702
      5 N         141.0881  140.5776  161.8777 N.ar    1  UNL1       -0.2052
      6 C         142.4618  141.1476  161.6828 C.ar    1  UNL1        0.1647
      7 S         142.9601  141.6221  163.0156 S.2     1  UNL1       -0.0499
      8 C         141.8944  141.3454  164.0343 C.ar    1  UNL1        0.0679
      9 C         141.8280  141.5978  165.5114 C.ar    1  UNL1        0.0112
     10 O         140.3392  142.2146  172.1937 O.3     1  UNL1       -0.4919
     11 C         140.4056  141.9621  170.7166 C.ar    1  UNL1        0.2216
     12 C         140.3756  140.5564  170.1939 C.ar    1  UNL1        0.0575
     13 C         140.4420  140.3040  168.7168 C.ar    1  UNL1        0.0064
     14 C         140.5383  141.4571  167.7624 C.ar    1  UNL1        0.0209
     15 C         140.5682  142.8628  168.2851 C.ar    1  UNL1        0.1021
     16 N         140.5019  143.1153  169.7622 N.ar    1  UNL1       -0.2103
     17 H         140.2791  141.4942  172.7899 H       1  UNL1        0.2937
     18 N         143.2065  141.2288  160.3832 N.pl3   1  UNL1       -0.2880
     19 C         143.1245  140.0990  159.3999 C.3     1  UNL1        0.0940
     20 C         143.8692  140.1802  158.1004 C.3     1  UNL1        0.0375
     21 C         144.6957  141.3912  157.7841 C.3     1  UNL1        0.0609
     22 C         144.7777  142.5211  158.7673 C.3     1  UNL1        0.0375
     23 C         144.0330  142.4399  160.0668 C.3     1  UNL1        0.0940
     24 N         145.4404  141.4725  156.4845 N.3     1  UNL1       -0.2738
     25 C         146.7754  142.1540  156.4264 C.3     1  UNL1        0.0720
     26 C         147.5201  142.2352  155.1269 C.3     1  UNL1        0.0174
     27 C         146.9298  141.6351  153.8854 C.3     1  UNL1        0.0029
     28 C         145.5948  140.9536  153.9435 C.3     1  UNL1        0.0174
     29 C         144.8501  140.8723  155.2430 C.3     1  UNL1        0.0720
@<TRIPOS>BOND
     1    10    11    1
     2    11    12   ar
     3    12    13   ar
     4    13    14   ar
     5    14     1    1
     6     1     2   ar
     7     2     3   ar
     8     3     4   ar
     9     4     5   ar
    10     5     6   ar
    11     6    18    1
    12    18    19    1
    13    19    20    1
    14    20    21    1
    15    21    24    1
    16    24    25    1
    17    25    26    1
    18    26    27    1
    19    27    28    1
    20    28    29    1
    21    21    22    1
    22    22    23    1
    23     6     7   ar
    24     7     8   ar
    25     8     9   ar
    26    14    15   ar
    27    15    16   ar
    28    16    11   ar
    29     9     1   ar
    30     8     4   ar
    31    23    18    1
    32    29    24    1
    33    10    17    1
