@<TRIPOS>MOLECULE
*****
 23 23 0 0 0
SMALL
GASTEIGER

@<TRIPOS>ATOM
      1 C         140.8924  140.7131  165.9287 C.ar    1  UNL1        0.1855
      2 C         140.1467  141.7456  165.1364 C.ar    1  UNL1        0.0562
      3 C         138.7150  141.5094  164.7561 C.ar    1  UNL1        0.0757
      4 C         138.0291  140.2406  165.1681 C.ar    1  UNL1        0.0080
      5 C         138.7749  139.2081  165.9604 C.ar    1  UNL1        0.0757
      6 C         140.2065  139.4444  166.3407 C.ar    1  UNL1        0.0562
      7 C         137.9693  142.5420  163.9638 C.3     1  UNL1        0.4187
      8 F         137.2236  143.5745  163.1715 F       1  UNL1       -0.1659
      9 F         137.1570  141.4593  163.3174 F       1  UNL1       -0.1659
     10 F         138.7816  143.6247  164.6102 F       1  UNL1       -0.1659
     11 C         138.0890  137.9393  166.3725 C.3     1  UNL1        0.4187
     12 F         137.4031  136.6706  166.7845 F       1  UNL1       -0.1659
     13 F         138.8840  137.1785  165.3531 F       1  UNL1       -0.1659
     14 F         137.2940  138.7001  167.3918 F       1  UNL1       -0.1659
     15 O         143.3669  141.1081  165.2427 O.co2   1  UNL1       -0.6736
     16 S         142.3240  140.9494  166.3090 S.O     1  UNL1        0.0788
     17 C         142.7128  141.0268  167.7557 C.2     1  UNL1        0.2285
     18 C         143.2545  142.3071  168.3192 C.2     1  UNL1        0.0328
     19 C         143.6433  142.3845  169.7659 C.3     1  UNL1        0.0579
     20 C         142.7199  143.0285  170.7572 C.3     1  UNL1        0.1409
     21 N         141.7053  142.1985  171.4862 N.2     1  UNL1       -0.2217
     22 C         140.6177  141.5022  170.7230 C.1     1  UNL1        0.0365
     23 S         139.5302  140.8059  169.9599 S.2     1  UNL1        0.0203
@<TRIPOS>UNITY_ATOM_ATTR
15 1
charge -1
16 1
charge 1
@<TRIPOS>BOND
     1    16    15    2
     2    16    17    1
     3    17    18    2
     4    18    19    1
     5    19    20    1
     6    20    21    1
     7    21    22    2
     8    22    23    2
     9    16     1    1
    10     1     2   ar
    11     2     3   ar
    12     3     7    1
    13     7     8    1
    14     7     9    1
    15     7    10    1
    16     3     4   ar
    17     4     5   ar
    18     5    11    1
    19    11    12    1
    20    11    13    1
    21    11    14    1
    22     5     6   ar
    23     6     1   ar
@<TRIPOS>MOLECULE
*****
 23 23 0 0 0
SMALL
GASTEIGER

@<TRIPOS>ATOM
      1 C         138.7151  141.4704  164.6813 C.ar    1  UNL1        0.1855
      2 C         139.6607  142.1356  165.6370 C.ar    1  UNL1        0.0562
      3 C         140.0514  141.4436  166.9092 C.ar    1  UNL1        0.0757
      4 C         139.4966  140.0865  167.2257 C.ar    1  UNL1        0.0080
      5 C         138.5509  139.4213  166.2701 C.ar    1  UNL1        0.0757
      6 C         138.1602  140.1133  164.9979 C.ar    1  UNL1        0.0562
      7 C         140.9971  142.1089  167.8648 C.3     1  UNL1        0.4187
      8 F         141.9428  142.7740  168.8205 F       1  UNL1       -0.1659
      9 F         141.7918  140.8403  167.9614 F       1  UNL1       -0.1659
     10 F         140.2025  143.3774  167.7682 F       1  UNL1       -0.1659
     11 C         137.9960  138.0641  166.5866 C.3     1  UNL1        0.4187
     12 F         137.4411  136.7070  166.9031 F       1  UNL1       -0.1659
     13 F         137.2648  138.6376  167.7640 F       1  UNL1       -0.1659
     14 F         138.7272  137.4906  165.4092 F       1  UNL1       -0.1659
     15 O         136.9835  141.8960  162.7917 O.co2   1  UNL1       -0.6736
     16 S         138.3243  142.1624  163.4091 S.O     1  UNL1        0.0788
     17 C         139.2744  143.1207  162.7543 C.2     1  UNL1        0.2285
     18 C         139.0455  144.5988  162.8673 C.2     1  UNL1        0.0328
     19 C         139.9956  145.5572  162.2124 C.3     1  UNL1        0.0579
     20 C         140.7895  145.1258  161.0150 C.3     1  UNL1        0.1409
     21 N         142.2026  144.6517  161.1832 N.2     1  UNL1       -0.2217
     22 C         142.8138  144.5859  162.5515 C.1     1  UNL1        0.0365
     23 S         143.4250  144.5201  163.9197 S.2     1  UNL1        0.0203
@<TRIPOS>UNITY_ATOM_ATTR
15 1
charge -1
16 1
charge 1
@<TRIPOS>BOND
     1    16    15    2
     2    16    17    1
     3    17    18    2
     4    18    19    1
     5    19    20    1
     6    20    21    1
     7    21    22    2
     8    22    23    2
     9    16     1    1
    10     1     2   ar
    11     2     3   ar
    12     3     7    1
    13     7     8    1
    14     7     9    1
    15     7    10    1
    16     3     4   ar
    17     4     5   ar
    18     5    11    1
    19    11    12    1
    20    11    13    1
    21    11    14    1
    22     5     6   ar
    23     6     1   ar
@<TRIPOS>MOLECULE
*****
 23 23 0 0 0
SMALL
GASTEIGER

@<TRIPOS>ATOM
      1 C         138.7135  141.4733  164.6345 C.ar    1  UNL1        0.1855
      2 C         138.1792  140.1087  164.9543 C.ar    1  UNL1        0.0562
      3 C         138.5484  139.4426  166.2466 C.ar    1  UNL1        0.0757
      4 C         139.4519  140.1411  167.2191 C.ar    1  UNL1        0.0080
      5 C         139.9862  141.5057  166.8993 C.ar    1  UNL1        0.0757
      6 C         139.6170  142.1718  165.6070 C.ar    1  UNL1        0.0562
      7 C         138.0140  138.0779  166.5664 C.3     1  UNL1        0.4187
      8 F         137.4797  136.7133  166.8862 F       1  UNL1       -0.1659
      9 F         137.2606  138.6461  167.7323 F       1  UNL1       -0.1659
     10 F         138.7675  137.5096  165.4005 F       1  UNL1       -0.1659
     11 C         140.8897  142.2043  167.8718 C.3     1  UNL1        0.4187
     12 F         141.7931  142.9028  168.8443 F       1  UNL1       -0.1659
     13 F         141.8552  142.4997  166.7626 F       1  UNL1       -0.1659
     14 F         139.9241  141.9088  168.9810 F       1  UNL1       -0.1659
     15 O         137.0155  141.8576  162.7060 O.co2   1  UNL1       -0.6736
     16 S         138.3443  142.1394  163.3423 S.O     1  UNL1        0.0788
     17 C         139.3040  143.0874  162.6862 C.2     1  UNL1        0.2285
     18 C         139.0515  144.5651  162.7373 C.2     1  UNL1        0.0328
     19 C         140.0112  145.5130  162.0812 C.3     1  UNL1        0.0579
     20 C         140.8517  145.0507  160.9280 C.3     1  UNL1        0.1409
     21 N         142.2703  144.6214  161.1586 N.2     1  UNL1       -0.2217
     22 C         142.8149  144.5500  162.5544 C.1     1  UNL1        0.0365
     23 S         143.3595  144.4786  163.9502 S.2     1  UNL1        0.0203
@<TRIPOS>UNITY_ATOM_ATTR
15 1
charge -1
16 1
charge 1
@<TRIPOS>BOND
     1    16    15    2
     2    16    17    1
     3    17    18    2
     4    18    19    1
     5    19    20    1
     6    20    21    1
     7    21    22    2
     8    22    23    2
     9    16     1    1
    10     1     2   ar
    11     2     3   ar
    12     3     7    1
    13     7     8    1
    14     7     9    1
    15     7    10    1
    16     3     4   ar
    17     4     5   ar
    18     5    11    1
    19    11    12    1
    20    11    13    1
    21    11    14    1
    22     5     6   ar
    23     6     1   ar
@<TRIPOS>MOLECULE
*****
 23 23 0 0 0
SMALL
GASTEIGER

@<TRIPOS>ATOM
      1 C         140.2653  140.7151  165.6270 C.ar    1  UNL1        0.1855
      2 C         140.9048  140.0149  164.4649 C.ar    1  UNL1        0.0562
      3 C         140.4795  138.6231  164.1015 C.ar    1  UNL1        0.0757
      4 C         139.4148  137.9315  164.9002 C.ar    1  UNL1        0.0080
      5 C         138.7752  138.6318  166.0623 C.ar    1  UNL1        0.0757
      6 C         139.2005  140.0236  166.4257 C.ar    1  UNL1        0.0562
      7 C         141.1191  137.9228  162.9393 C.3     1  UNL1        0.4187
      8 F         141.7587  137.2225  161.7772 F       1  UNL1       -0.1659
      9 F         141.2253  136.6678  163.7540 F       1  UNL1       -0.1659
     10 F         141.0129  139.1777  162.1246 F       1  UNL1       -0.1659
     11 C         137.7104  137.9403  166.8611 C.3     1  UNL1        0.4187
     12 F         136.6456  137.2488  167.6598 F       1  UNL1       -0.1659
     13 F         137.5148  139.1837  167.6769 F       1  UNL1       -0.1659
     14 F         137.9060  136.6969  166.0453 F       1  UNL1       -0.1659
     15 O         140.7753  143.1658  164.9315 O.co2   1  UNL1       -0.6736
     16 S         140.6905  142.1069  165.9904 S.O     1  UNL1        0.0788
     17 C         141.0310  142.4398  167.4128 C.2     1  UNL1        0.2285
     18 C         140.1838  143.4120  168.1790 C.2     1  UNL1        0.0328
     19 C         140.5244  143.7448  169.6015 C.3     1  UNL1        0.0579
     20 C         139.8229  143.0409  170.7250 C.3     1  UNL1        0.1409
     21 N         140.5859  142.1082  171.6183 N.2     1  UNL1       -0.2217
     22 C         141.6542  141.2258  171.0439 C.1     1  UNL1        0.0365
     23 S         142.7226  140.3433  170.4695 S.2     1  UNL1        0.0203
@<TRIPOS>UNITY_ATOM_ATTR
15 1
charge -1
16 1
charge 1
@<TRIPOS>BOND
     1    16    15    2
     2    16    17    1
     3    17    18    2
     4    18    19    1
     5    19    20    1
     6    20    21    1
     7    21    22    2
     8    22    23    2
     9    16     1    1
    10     1     2   ar
    11     2     3   ar
    12     3     7    1
    13     7     8    1
    14     7     9    1
    15     7    10    1
    16     3     4   ar
    17     4     5   ar
    18     5    11    1
    19    11    12    1
    20    11    13    1
    21    11    14    1
    22     5     6   ar
    23     6     1   ar
@<TRIPOS>MOLECULE
*****
 23 23 0 0 0
SMALL
GASTEIGER

@<TRIPOS>ATOM
      1 C         140.7681  141.0636  166.1830 C.ar    1  UNL1        0.1855
      2 C         140.1503  139.7351  166.5043 C.ar    1  UNL1        0.0562
      3 C         138.7939  139.3887  165.9657 C.ar    1  UNL1        0.0757
      4 C         138.0553  140.3708  165.1056 C.ar    1  UNL1        0.0080
      5 C         138.6730  141.6994  164.7843 C.ar    1  UNL1        0.0757
      6 C         140.0294  142.0458  165.3229 C.ar    1  UNL1        0.0562
      7 C         138.1762  138.0600  166.2871 C.3     1  UNL1        0.4187
      8 F         137.5585  136.7315  166.6085 F       1  UNL1       -0.1659
      9 F         137.3128  138.7127  167.3255 F       1  UNL1       -0.1659
     10 F         139.0396  137.4073  165.2486 F       1  UNL1       -0.1659
     11 C         137.9343  142.6816  163.9242 C.3     1  UNL1        0.4187
     12 F         137.1957  143.6638  163.0642 F       1  UNL1       -0.1659
     13 F         137.1631  141.5560  163.3010 F       1  UNL1       -0.1659
     14 F         138.7054  143.8072  164.5474 F       1  UNL1       -0.1659
     15 O         142.2790  141.8231  168.1553 O.co2   1  UNL1       -0.6736
     16 S         142.1245  141.4100  166.7216 S.O     1  UNL1        0.0788
     17 C         143.3263  141.3434  165.8266 C.2     1  UNL1        0.2285
     18 C         143.6318  140.0825  165.0738 C.2     1  UNL1        0.0328
     19 C         144.8337  140.0158  164.1787 C.3     1  UNL1        0.0579
     20 C         145.6055  141.2632  163.8654 C.3     1  UNL1        0.1409
     21 N         145.2384  142.0920  162.6703 N.2     1  UNL1       -0.2217
     22 C         144.4708  143.3682  162.8497 C.1     1  UNL1        0.0365
     23 S         143.7032  144.6444  163.0292 S.2     1  UNL1        0.0203
@<TRIPOS>UNITY_ATOM_ATTR
15 1
charge -1
16 1
charge 1
@<TRIPOS>BOND
     1    16    15    2
     2    16    17    1
     3    17    18    2
     4    18    19    1
     5    19    20    1
     6    20    21    1
     7    21    22    2
     8    22    23    2
     9    16     1    1
    10     1     2   ar
    11     2     3   ar
    12     3     7    1
    13     7     8    1
    14     7     9    1
    15     7    10    1
    16     3     4   ar
    17     4     5   ar
    18     5    11    1
    19    11    12    1
    20    11    13    1
    21    11    14    1
    22     5     6   ar
    23     6     1   ar
@<TRIPOS>MOLECULE
*****
 23 23 0 0 0
SMALL
GASTEIGER

@<TRIPOS>ATOM
      1 C         140.9553  140.9555  165.6623 C.ar    1  UNL1        0.1855
      2 C         140.3145  139.6659  166.0822 C.ar    1  UNL1        0.0562
      3 C         138.8653  139.4172  165.7858 C.ar    1  UNL1        0.0757
      4 C         138.0569  140.4579  165.0695 C.ar    1  UNL1        0.0080
      5 C         138.6977  141.7475  164.6496 C.ar    1  UNL1        0.0757
      6 C         140.1469  141.9963  164.9460 C.ar    1  UNL1        0.0562
      7 C         138.2245  138.1275  166.2058 C.3     1  UNL1        0.4187
      8 F         137.5838  136.8379  166.6257 F       1  UNL1       -0.1659
      9 F         139.0752  137.3837  165.2194 F       1  UNL1       -0.1659
     10 F         137.3738  138.8713  167.1921 F       1  UNL1       -0.1659
     11 C         137.8892  142.7884  163.9332 C.3     1  UNL1        0.4187
     12 F         137.0808  143.8291  163.2168 F       1  UNL1       -0.1659
     13 F         138.7069  143.8676  164.5785 F       1  UNL1       -0.1659
     14 F         137.0715  141.7091  163.2879 F       1  UNL1       -0.1659
     15 O         143.4622  140.6363  165.0596 O.co2   1  UNL1       -0.6736
     16 S         142.4045  141.2043  165.9588 S.O     1  UNL1        0.0788
     17 C         142.7960  142.0210  167.1544 C.2     1  UNL1        0.2285
     18 C         143.0496  141.3491  168.4713 C.2     1  UNL1        0.0328
     19 C         143.4411  142.1659  169.6670 C.3     1  UNL1        0.0579
     20 C         142.4227  143.0279  170.3524 C.3     1  UNL1        0.1409
     21 N         141.3324  142.3974  171.1670 N.2     1  UNL1       -0.2217
     22 C         140.3281  141.4988  170.5082 C.1     1  UNL1        0.0365
     23 S         139.3238  140.6003  169.8493 S.2     1  UNL1        0.0203
@<TRIPOS>UNITY_ATOM_ATTR
15 1
charge -1
16 1
charge 1
@<TRIPOS>BOND
     1    16    15    2
     2    16    17    1
     3    17    18    2
     4    18    19    1
     5    19    20    1
     6    20    21    1
     7    21    22    2
     8    22    23    2
     9    16     1    1
    10     1     2   ar
    11     2     3   ar
    12     3     7    1
    13     7     8    1
    14     7     9    1
    15     7    10    1
    16     3     4   ar
    17     4     5   ar
    18     5    11    1
    19    11    12    1
    20    11    13    1
    21    11    14    1
    22     5     6   ar
    23     6     1   ar
@<TRIPOS>MOLECULE
*****
 23 23 0 0 0
SMALL
GASTEIGER

@<TRIPOS>ATOM
      1 C         140.7682  141.0938  166.1737 C.ar    1  UNL1        0.1855
      2 C         140.0377  142.0528  165.2813 C.ar    1  UNL1        0.0562
      3 C         138.6802  141.6981  164.7507 C.ar    1  UNL1        0.0757
      4 C         138.0533  140.3843  165.1126 C.ar    1  UNL1        0.0080
      5 C         138.7839  139.4253  166.0051 C.ar    1  UNL1        0.0757
      6 C         140.1413  139.7801  166.5357 C.ar    1  UNL1        0.0562
      7 C         137.9497  142.6571  163.8582 C.3     1  UNL1        0.4187
      8 F         137.2191  143.6161  162.9657 F       1  UNL1       -0.1659
      9 F         137.1075  141.5306  163.3371 F       1  UNL1       -0.1659
     10 F         138.7919  143.7837  164.3793 F       1  UNL1       -0.1659
     11 C         138.1570  138.1115  166.3671 C.3     1  UNL1        0.4187
     12 F         137.5301  136.7978  166.7291 F       1  UNL1       -0.1659
     13 F         138.7832  137.4799  165.1593 F       1  UNL1       -0.1659
     14 F         137.5308  138.7431  167.5749 F       1  UNL1       -0.1659
     15 O         142.2834  141.8816  168.1317 O.co2   1  UNL1       -0.6736
     16 S         142.1257  141.4486  166.7043 S.O     1  UNL1        0.0788
     17 C         143.3254  141.3702  165.8075 C.2     1  UNL1        0.2285
     18 C         143.6124  140.1095  165.0470 C.2     1  UNL1        0.0328
     19 C         144.8122  140.0313  164.1501 C.3     1  UNL1        0.0579
     20 C         145.5942  141.2715  163.8337 C.3     1  UNL1        0.1409
     21 N         145.2057  142.1249  162.6630 N.2     1  UNL1       -0.2217
     22 C         144.4716  143.4140  162.8853 C.1     1  UNL1        0.0365
     23 S         143.7374  144.7030  163.1076 S.2     1  UNL1        0.0203
@<TRIPOS>UNITY_ATOM_ATTR
15 1
charge -1
16 1
charge 1
@<TRIPOS>BOND
     1    16    15    2
     2    16    17    1
     3    17    18    2
     4    18    19    1
     5    19    20    1
     6    20    21    1
     7    21    22    2
     8    22    23    2
     9    16     1    1
    10     1     2   ar
    11     2     3   ar
    12     3     7    1
    13     7     8    1
    14     7     9    1
    15     7    10    1
    16     3     4   ar
    17     4     5   ar
    18     5    11    1
    19    11    12    1
    20    11    13    1
    21    11    14    1
    22     5     6   ar
    23     6     1   ar
@<TRIPOS>MOLECULE
*****
 23 23 0 0 0
SMALL
GASTEIGER

@<TRIPOS>ATOM
      1 C         139.0433  141.6670  165.0814 C.ar    1  UNL1        0.1855
      2 C         139.9170  142.1980  166.1789 C.ar    1  UNL1        0.0562
      3 C         140.1553  141.3770  167.4115 C.ar    1  UNL1        0.0757
      4 C         139.5198  140.0250  167.5465 C.ar    1  UNL1        0.0080
      5 C         138.6461  139.4940  166.4490 C.ar    1  UNL1        0.0757
      6 C         138.4078  140.3150  165.2164 C.ar    1  UNL1        0.0562
      7 C         141.0291  141.9080  168.5090 C.3     1  UNL1        0.4187
      8 F         141.9028  142.4391  169.6065 F       1  UNL1       -0.1659
      9 F         140.2775  143.2058  168.4794 F       1  UNL1       -0.1659
     10 F         141.7807  140.6103  168.5386 F       1  UNL1       -0.1659
     11 C         138.0106  138.1419  166.5840 C.3     1  UNL1        0.4187
     12 F         137.3751  136.7899  166.7189 F       1  UNL1       -0.1659
     13 F         137.2929  138.6024  167.8180 F       1  UNL1       -0.1659
     14 F         138.7282  137.6815  165.3499 F       1  UNL1       -0.1659
     15 O         137.4394  142.5326  163.2299 O.co2   1  UNL1       -0.6736
     16 S         138.8050  142.4880  163.8489 S.O     1  UNL1        0.0788
     17 C         139.9322  143.2644  163.2353 C.2     1  UNL1        0.2285
     18 C         140.3279  144.5925  163.8093 C.2     1  UNL1        0.0328
     19 C         141.4553  145.3688  163.1957 C.3     1  UNL1        0.0579
     20 C         142.8718  145.0731  163.5906 C.3     1  UNL1        0.1409
     21 N         143.8751  144.6812  162.5467 N.2     1  UNL1       -0.2217
     22 C         144.5296  143.3327  162.6042 C.1     1  UNL1        0.0365
     23 S         145.1840  141.9842  162.6617 S.2     1  UNL1        0.0203
@<TRIPOS>UNITY_ATOM_ATTR
15 1
charge -1
16 1
charge 1
@<TRIPOS>BOND
     1    16    15    2
     2    16    17    1
     3    17    18    2
     4    18    19    1
     5    19    20    1
     6    20    21    1
     7    21    22    2
     8    22    23    2
     9    16     1    1
    10     1     2   ar
    11     2     3   ar
    12     3     7    1
    13     7     8    1
    14     7     9    1
    15     7    10    1
    16     3     4   ar
    17     4     5   ar
    18     5    11    1
    19    11    12    1
    20    11    13    1
    21    11    14    1
    22     5     6   ar
    23     6     1   ar
@<TRIPOS>MOLECULE
*****
 23 23 0 0 0
SMALL
GASTEIGER

@<TRIPOS>ATOM
      1 C         139.1992  139.9948  166.8209 C.ar    1  UNL1        0.1855
      2 C         139.7306  140.0402  168.2229 C.ar    1  UNL1        0.0562
      3 C         140.4790  141.2485  168.7024 C.ar    1  UNL1        0.0757
      4 C         140.6961  142.4112  167.7800 C.ar    1  UNL1        0.0080
      5 C         140.1647  142.3657  166.3781 C.ar    1  UNL1        0.0757
      6 C         139.4163  141.1575  165.8985 C.ar    1  UNL1        0.0562
      7 C         141.0105  141.2939  170.1045 C.3     1  UNL1        0.4187
      8 F         141.5418  141.3393  171.5064 F       1  UNL1       -0.1659
      9 F         140.7960  139.8150  170.2336 F       1  UNL1       -0.1659
     10 F         141.2249  142.7728  169.9753 F       1  UNL1       -0.1659
     11 C         140.3818  143.5285  165.4556 C.3     1  UNL1        0.4187
     12 F         140.5988  144.6913  164.5332 F       1  UNL1       -0.1659
     13 F         141.6532  142.9020  164.9649 F       1  UNL1       -0.1659
     14 F         139.1103  144.1551  165.9463 F       1  UNL1       -0.1659
     15 O         137.1821  138.3700  167.0248 O.co2   1  UNL1       -0.6736
     16 S         138.4507  138.7865  166.3414 S.O     1  UNL1        0.0788
     17 C         138.9708  137.9948  165.1784 C.2     1  UNL1        0.2285
     18 C         140.4470  137.7855  165.0137 C.2     1  UNL1        0.0328
     19 C         140.9671  136.9937  163.8506 C.3     1  UNL1        0.0579
     20 C         141.5306  137.7010  162.6538 C.3     1  UNL1        0.1409
     21 N         140.7068  137.8399  161.4081 N.2     1  UNL1       -0.2217
     22 C         139.2485  138.1772  161.5069 C.1     1  UNL1        0.0365
     23 S         137.7903  138.5145  161.6057 S.2     1  UNL1        0.0203
@<TRIPOS>UNITY_ATOM_ATTR
15 1
charge -1
16 1
charge 1
@<TRIPOS>BOND
     1    16    15    2
     2    16    17    1
     3    17    18    2
     4    18    19    1
     5    19    20    1
     6    20    21    1
     7    21    22    2
     8    22    23    2
     9    16     1    1
    10     1     2   ar
    11     2     3   ar
    12     3     7    1
    13     7     8    1
    14     7     9    1
    15     7    10    1
    16     3     4   ar
    17     4     5   ar
    18     5    11    1
    19    11    12    1
    20    11    13    1
    21    11    14    1
    22     5     6   ar
    23     6     1   ar
