@<TRIPOS>MOLECULE
*****
 26 29 0 0 0
SMALL
GASTEIGER

@<TRIPOS>ATOM
      1 C         137.8930  138.8368  167.0996 C.3     1  UNL1        0.0284
      2 C         139.0966  139.4406  166.4388 C.3     1  UNL1        0.1292
      3 C         139.3875  139.1461  164.9971 C.3     1  UNL1        0.2278
      4 O         140.5911  139.7499  164.3362 O.3     1  UNL1       -0.4707
      5 C         141.5038  140.6483  165.1171 C.ar    1  UNL1        0.1697
      6 C         142.7074  141.2521  164.4563 C.ar    1  UNL1        0.1116
      7 C         143.6201  142.1505  165.2371 C.ar    1  UNL1        0.1565
      8 F         144.8237  142.7543  164.5763 F       1  UNL1       -0.2028
      9 C         143.3293  142.4451  166.6789 C.ar    1  UNL1        0.0357
     10 C         142.1257  141.8412  167.3398 C.ar    1  UNL1        0.0601
     11 C         141.8348  142.1358  168.7815 C.ar    1  UNL1        0.1997
     12 O         142.7475  143.0342  169.5624 O.2     1  UNL1       -0.2864
     13 C         140.6312  141.5320  169.4423 C.ar    1  UNL1        0.0701
     14 C         139.7184  140.6336  168.6615 C.ar    1  UNL1        0.0803
     15 N         140.0093  140.3390  167.2197 N.ar    1  UNL1       -0.3216
     16 C         141.2129  140.9428  166.5588 C.ar    1  UNL1        0.0988
     17 N         142.9983  140.9576  163.0146 N.pl3   1  UNL1       -0.3005
     18 C         142.4864  141.8747  161.9436 C.3     1  UNL1        0.1083
     19 C         142.7774  141.5801  160.5018 C.3     1  UNL1        0.0938
     20 N         143.5801  140.3684  160.1311 N.3     1  UNL1       -0.2686
     21 C         143.8711  140.0738  158.6893 C.3     1  UNL1        0.0897
     22 C         144.0920  139.4513  161.2020 C.3     1  UNL1        0.0938
     23 C         143.8011  139.7459  162.6437 C.3     1  UNL1        0.1083
     24 C         140.3403  141.8265  170.8841 C.2     1  UNL1        0.0774
     25 O         139.5604  143.0525  171.2566 O.co2   1  UNL1       -0.5444
     26 O         140.8294  140.8952  171.9534 O.co2   1  UNL1       -0.5444
@<TRIPOS>UNITY_ATOM_ATTR
25 1
charge -1
@<TRIPOS>BOND
     1     2     1    1
     2     2     3    1
     3     3     4    1
     4     4     5    1
     5     5     6   ar
     6     6    17    1
     7    17    18    1
     8    18    19    1
     9    19    20    1
    10    20    21    1
    11    20    22    1
    12    22    23    1
    13     6     7   ar
    14     7     8    1
    15     7     9   ar
    16     9    10   ar
    17    10    11   ar
    18    11    12    2
    19    11    13   ar
    20    13    24    1
    21    24    25   ar
    22    24    26   ar
    23    13    14   ar
    24    14    15   ar
    25    15    16   ar
    26    15     2    1
    27    16     5   ar
    28    23    17    1
    29    16    10   ar
@<TRIPOS>MOLECULE
*****
 26 29 0 0 0
SMALL
GASTEIGER

@<TRIPOS>ATOM
      1 C         143.3560  142.5385  167.2488 C.3     1  UNL1        0.0284
      2 C         142.6317  141.6173  166.3124 C.3     1  UNL1        0.1292
      3 C         143.1485  141.4047  164.9204 C.3     1  UNL1        0.2278
      4 O         142.4242  140.4835  163.9840 O.3     1  UNL1       -0.4707
      5 C         141.1831  139.7750  164.4397 C.ar    1  UNL1        0.1697
      6 C         140.4587  138.8538  163.5033 C.ar    1  UNL1        0.1116
      7 C         139.2176  138.1453  163.9589 C.ar    1  UNL1        0.1565
      8 F         138.4933  137.2241  163.0226 F       1  UNL1       -0.2028
      9 C         138.7008  138.3579  165.3510 C.ar    1  UNL1        0.0357
     10 C         139.4251  139.2791  166.2873 C.ar    1  UNL1        0.0601
     11 C         138.9083  139.4918  167.6793 C.ar    1  UNL1        0.1997
     12 O         137.6672  138.7833  168.1350 O.2     1  UNL1       -0.2864
     13 C         139.6327  140.4130  168.6157 C.ar    1  UNL1        0.0701
     14 C         140.8738  141.1215  168.1601 C.ar    1  UNL1        0.0803
     15 N         141.3906  140.9088  166.7680 N.ar    1  UNL1       -0.3216
     16 C         140.6663  139.9876  165.8316 C.ar    1  UNL1        0.0988
     17 N         140.9755  138.6411  162.1113 N.pl3   1  UNL1       -0.3005
     18 C         140.2283  139.2055  160.9395 C.3     1  UNL1        0.1083
     19 C         140.7451  138.9928  159.5475 C.3     1  UNL1        0.0938
     20 N         142.0091  138.2157  159.3273 N.3     1  UNL1       -0.2686
     21 C         142.5260  138.0030  157.9353 C.3     1  UNL1        0.0897
     22 C         142.7563  137.6514  160.4991 C.3     1  UNL1        0.0938
     23 C         142.2396  137.8640  161.8911 C.3     1  UNL1        0.1083
     24 C         139.1158  140.6256  170.0077 C.2     1  UNL1        0.0774
     25 O         139.0532  142.0102  170.5812 O.co2   1  UNL1       -0.5444
     26 O         138.6616  139.4536  170.8263 O.co2   1  UNL1       -0.5444
@<TRIPOS>UNITY_ATOM_ATTR
25 1
charge -1
@<TRIPOS>BOND
     1     2     1    1
     2     2     3    1
     3     3     4    1
     4     4     5    1
     5     5     6   ar
     6     6    17    1
     7    17    18    1
     8    18    19    1
     9    19    20    1
    10    20    21    1
    11    20    22    1
    12    22    23    1
    13     6     7   ar
    14     7     8    1
    15     7     9   ar
    16     9    10   ar
    17    10    11   ar
    18    11    12    2
    19    11    13   ar
    20    13    24    1
    21    24    25   ar
    22    24    26   ar
    23    13    14   ar
    24    14    15   ar
    25    15    16   ar
    26    15     2    1
    27    16     5   ar
    28    23    17    1
    29    16    10   ar
@<TRIPOS>MOLECULE
*****
 26 29 0 0 0
SMALL
GASTEIGER

@<TRIPOS>ATOM
      1 C         138.8898  144.7676  165.2401 C.3     1  UNL1        0.0284
      2 C         139.6743  143.4933  165.1371 C.3     1  UNL1        0.1292
      3 C         139.9221  142.8715  163.7948 C.3     1  UNL1        0.2278
      4 O         140.7067  141.5972  163.6918 O.3     1  UNL1       -0.4707
      5 C         141.2435  140.9447  164.9311 C.ar    1  UNL1        0.1697
      6 C         142.0281  139.6704  164.8282 C.ar    1  UNL1        0.1116
      7 C         142.5649  139.0179  166.0675 C.ar    1  UNL1        0.1565
      8 F         143.3495  137.7437  165.9645 F       1  UNL1       -0.2028
      9 C         142.3171  139.6397  167.4099 C.ar    1  UNL1        0.0357
     10 C         141.5325  140.9140  167.5129 C.ar    1  UNL1        0.0601
     11 C         141.2847  141.5358  168.8553 C.ar    1  UNL1        0.1997
     12 O         141.8215  140.8833  170.0947 O.2     1  UNL1       -0.2864
     13 C         140.5001  142.8101  168.9582 C.ar    1  UNL1        0.0701
     14 C         139.9633  143.4626  167.7189 C.ar    1  UNL1        0.0803
     15 N         140.2111  142.8408  166.3765 N.ar    1  UNL1       -0.3216
     16 C         140.9957  141.5665  166.2735 C.ar    1  UNL1        0.0988
     17 N         142.2759  139.0487  163.4858 N.pl3   1  UNL1       -0.3005
     18 C         141.1319  138.4792  162.7003 C.3     1  UNL1        0.1083
     19 C         141.3798  137.8574  161.3579 C.3     1  UNL1        0.0938
     20 N         142.7716  137.8051  160.8011 N.3     1  UNL1       -0.2686
     21 C         143.0194  137.1832  159.4587 C.3     1  UNL1        0.0897
     22 C         143.9155  138.3745  161.5865 C.3     1  UNL1        0.0938
     23 C         143.6677  138.9963  162.9289 C.3     1  UNL1        0.1083
     24 C         140.2523  143.4319  170.3007 C.2     1  UNL1        0.0774
     25 O         140.2051  144.9248  170.4386 O.co2   1  UNL1       -0.5444
     26 O         140.0517  142.5607  171.5052 O.co2   1  UNL1       -0.5444
@<TRIPOS>UNITY_ATOM_ATTR
25 1
charge -1
@<TRIPOS>BOND
     1     2     1    1
     2     2     3    1
     3     3     4    1
     4     4     5    1
     5     5     6   ar
     6     6    17    1
     7    17    18    1
     8    18    19    1
     9    19    20    1
    10    20    21    1
    11    20    22    1
    12    22    23    1
    13     6     7   ar
    14     7     8    1
    15     7     9   ar
    16     9    10   ar
    17    10    11   ar
    18    11    12    2
    19    11    13   ar
    20    13    24    1
    21    24    25   ar
    22    24    26   ar
    23    13    14   ar
    24    14    15   ar
    25    15    16   ar
    26    15     2    1
    27    16     5   ar
    28    23    17    1
    29    16    10   ar
@<TRIPOS>MOLECULE
*****
 26 29 0 0 0
SMALL
GASTEIGER

@<TRIPOS>ATOM
      1 C         143.2456  138.6251  166.8429 C.3     1  UNL1        0.0284
      2 C         142.4175  139.6751  166.1633 C.3     1  UNL1        0.1292
      3 C         142.2104  139.6223  164.6787 C.3     1  UNL1        0.2278
      4 O         141.3823  140.6723  163.9991 O.3     1  UNL1       -0.4707
      5 C         140.7614  141.7751  164.8042 C.ar    1  UNL1        0.1697
      6 C         139.9333  142.8251  164.1246 C.ar    1  UNL1        0.1116
      7 C         139.3124  143.9279  164.9297 C.ar    1  UNL1        0.1565
      8 F         138.4843  144.9779  164.2502 F       1  UNL1       -0.2028
      9 C         139.5195  143.9807  166.4145 C.ar    1  UNL1        0.0357
     10 C         140.3476  142.9307  167.0941 C.ar    1  UNL1        0.0601
     11 C         140.5547  142.9835  168.5787 C.ar    1  UNL1        0.1997
     12 O         139.9337  144.0864  169.3839 O.2     1  UNL1       -0.2864
     13 C         141.3828  141.9335  169.2583 C.ar    1  UNL1        0.0701
     14 C         142.0037  140.8307  168.4532 C.ar    1  UNL1        0.0803
     15 N         141.7966  140.7779  166.9684 N.ar    1  UNL1       -0.3216
     16 C         140.9685  141.8279  166.2889 C.ar    1  UNL1        0.0988
     17 N         139.7262  142.7723  162.6400 N.pl3   1  UNL1       -0.3005
     18 C         140.6547  143.5158  161.7262 C.3     1  UNL1        0.1083
     19 C         140.4476  143.4630  160.2415 C.3     1  UNL1        0.0938
     20 N         139.3119  142.6667  159.6706 N.3     1  UNL1       -0.2686
     21 C         139.1047  142.6139  158.1859 C.3     1  UNL1        0.0897
     22 C         138.3833  141.9232  160.5843 C.3     1  UNL1        0.0938
     23 C         138.5904  141.9759  162.0690 C.3     1  UNL1        0.1083
     24 C         141.5899  141.9864  170.7430 C.2     1  UNL1        0.0774
     25 O         142.5707  142.9580  171.3293 O.co2   1  UNL1       -0.5444
     26 O         140.8162  141.0675  171.6413 O.co2   1  UNL1       -0.5444
@<TRIPOS>UNITY_ATOM_ATTR
25 1
charge -1
@<TRIPOS>BOND
     1     2     1    1
     2     2     3    1
     3     3     4    1
     4     4     5    1
     5     5     6   ar
     6     6    17    1
     7    17    18    1
     8    18    19    1
     9    19    20    1
    10    20    21    1
    11    20    22    1
    12    22    23    1
    13     6     7   ar
    14     7     8    1
    15     7     9   ar
    16     9    10   ar
    17    10    11   ar
    18    11    12    2
    19    11    13   ar
    20    13    24    1
    21    24    25   ar
    22    24    26   ar
    23    13    14   ar
    24    14    15   ar
    25    15    16   ar
    26    15     2    1
    27    16     5   ar
    28    23    17    1
    29    16    10   ar
@<TRIPOS>MOLECULE
*****
 26 29 0 0 0
SMALL
GASTEIGER

@<TRIPOS>ATOM
      1 C         138.1073  139.1335  166.0619 C.3     1  UNL1        0.0284
      2 C         139.1053  140.1201  165.5322 C.3     1  UNL1        0.1292
      3 C         138.9483  140.6760  164.1479 C.3     1  UNL1        0.2278
      4 O         139.9463  141.6627  163.6183 O.3     1  UNL1       -0.4707
      5 C         141.1013  142.0935  164.4730 C.ar    1  UNL1        0.1697
      6 C         142.0993  143.0801  163.9433 C.ar    1  UNL1        0.1116
      7 C         143.2542  143.5109  164.7980 C.ar    1  UNL1        0.1565
      8 F         144.2522  144.4976  164.2684 F       1  UNL1       -0.2028
      9 C         143.4111  142.9551  166.1824 C.ar    1  UNL1        0.0357
     10 C         142.4132  141.9684  166.7120 C.ar    1  UNL1        0.0601
     11 C         142.5701  141.4126  168.0963 C.ar    1  UNL1        0.1997
     12 O         143.7251  141.8434  168.9511 O.2     1  UNL1       -0.2864
     13 C         141.5721  140.4259  168.6260 C.ar    1  UNL1        0.0701
     14 C         140.4172  139.9951  167.7713 C.ar    1  UNL1        0.0803
     15 N         140.2602  140.5510  166.3869 N.ar    1  UNL1       -0.3216
     16 C         141.2582  141.5376  165.8573 C.ar    1  UNL1        0.0988
     17 N         141.9423  143.6360  162.5590 N.pl3   1  UNL1       -0.3005
     18 C         142.7561  143.0770  161.4297 C.3     1  UNL1        0.1083
     19 C         142.5991  143.6329  160.0453 C.3     1  UNL1        0.0938
     20 N         141.6284  144.7477  159.7903 N.3     1  UNL1       -0.2686
     21 C         141.4715  145.3036  158.4060 C.3     1  UNL1        0.0897
     22 C         140.8147  145.3067  160.9197 C.3     1  UNL1        0.0938
     23 C         140.9716  144.7508  162.3040 C.3     1  UNL1        0.1083
     24 C         141.7291  139.8701  170.0104 C.2     1  UNL1        0.0774
     25 O         140.7598  140.2563  171.0880 O.co2   1  UNL1       -0.5444
     26 O         142.8553  138.9280  170.3170 O.co2   1  UNL1       -0.5444
@<TRIPOS>UNITY_ATOM_ATTR
25 1
charge -1
@<TRIPOS>BOND
     1     2     1    1
     2     2     3    1
     3     3     4    1
     4     4     5    1
     5     5     6   ar
     6     6    17    1
     7    17    18    1
     8    18    19    1
     9    19    20    1
    10    20    21    1
    11    20    22    1
    12    22    23    1
    13     6     7   ar
    14     7     8    1
    15     7     9   ar
    16     9    10   ar
    17    10    11   ar
    18    11    12    2
    19    11    13   ar
    20    13    24    1
    21    24    25   ar
    22    24    26   ar
    23    13    14   ar
    24    14    15   ar
    25    15    16   ar
    26    15     2    1
    27    16     5   ar
    28    23    17    1
    29    16    10   ar
@<TRIPOS>MOLECULE
*****
 26 29 0 0 0
SMALL
GASTEIGER

@<TRIPOS>ATOM
      1 C         143.5129  142.6452  166.2857 C.3     1  UNL1        0.0284
      2 C         142.6086  141.8058  165.4326 C.3     1  UNL1        0.1292
      3 C         142.8479  141.7095  163.9550 C.3     1  UNL1        0.2278
      4 O         141.9437  140.8701  163.1019 O.3     1  UNL1       -0.4707
      5 C         140.8002  140.1270  163.7265 C.ar    1  UNL1        0.1697
      6 C         139.8959  139.2876  162.8734 C.ar    1  UNL1        0.1116
      7 C         138.7524  138.5444  163.4979 C.ar    1  UNL1        0.1565
      8 F         137.8482  137.7050  162.6449 F       1  UNL1       -0.2028
      9 C         138.5131  138.6407  164.9756 C.ar    1  UNL1        0.0357
     10 C         139.4173  139.4801  165.8287 C.ar    1  UNL1        0.0601
     11 C         139.1780  139.5764  167.3063 C.ar    1  UNL1        0.1997
     12 O         138.0345  138.8333  167.9310 O.2     1  UNL1       -0.2864
     13 C         140.0823  140.4159  168.1594 C.ar    1  UNL1        0.0701
     14 C         141.2258  141.1590  167.5349 C.ar    1  UNL1        0.0803
     15 N         141.4651  141.0627  166.0572 N.ar    1  UNL1       -0.3216
     16 C         140.5609  140.2233  165.2041 C.ar    1  UNL1        0.0988
     17 N         140.1352  139.1913  161.3958 N.pl3   1  UNL1       -0.3005
     18 C         141.3633  138.5028  160.8781 C.3     1  UNL1        0.1083
     19 C         141.6025  138.4066  159.4004 C.3     1  UNL1        0.0938
     20 N         140.6137  138.9987  158.4404 N.3     1  UNL1       -0.2686
     21 C         140.8530  138.9024  156.9627 C.3     1  UNL1        0.0897
     22 C         139.3857  139.6871  158.9580 C.3     1  UNL1        0.0938
     23 C         139.1464  139.7834  160.4357 C.3     1  UNL1        0.1083
     24 C         139.8429  140.5121  169.6371 C.2     1  UNL1        0.0774
     25 O         138.9993  141.6226  170.1895 O.co2   1  UNL1       -0.5444
     26 O         140.4473  139.4979  170.5624 O.co2   1  UNL1       -0.5444
@<TRIPOS>UNITY_ATOM_ATTR
25 1
charge -1
@<TRIPOS>BOND
     1     2     1    1
     2     2     3    1
     3     3     4    1
     4     4     5    1
     5     5     6   ar
     6     6    17    1
     7    17    18    1
     8    18    19    1
     9    19    20    1
    10    20    21    1
    11    20    22    1
    12    22    23    1
    13     6     7   ar
    14     7     8    1
    15     7     9   ar
    16     9    10   ar
    17    10    11   ar
    18    11    12    2
    19    11    13   ar
    20    13    24    1
    21    24    25   ar
    22    24    26   ar
    23    13    14   ar
    24    14    15   ar
    25    15    16   ar
    26    15     2    1
    27    16     5   ar
    28    23    17    1
    29    16    10   ar
@<TRIPOS>MOLECULE
*****
 26 29 0 0 0
SMALL
GASTEIGER

@<TRIPOS>ATOM
      1 C         138.2894  137.2504  165.7247 C.3     1  UNL1        0.0284
      2 C         138.7937  138.5085  165.0822 C.3     1  UNL1        0.1292
      3 C         138.8253  138.6266  163.5872 C.3     1  UNL1        0.2278
      4 O         139.3296  139.8847  162.9447 O.3     1  UNL1       -0.4707
      5 C         139.8023  141.0248  163.7972 C.ar    1  UNL1        0.1697
      6 C         140.3065  142.2829  163.1547 C.ar    1  UNL1        0.1116
      7 C         140.7792  143.4230  164.0071 C.ar    1  UNL1        0.1565
      8 F         141.2835  144.6811  163.3646 F       1  UNL1       -0.2028
      9 C         140.7477  143.3050  165.5022 C.ar    1  UNL1        0.0357
     10 C         140.2434  142.0468  166.1447 C.ar    1  UNL1        0.0601
     11 C         140.2119  141.9288  167.6397 C.ar    1  UNL1        0.1997
     12 O         140.6846  143.0689  168.4922 O.2     1  UNL1       -0.2864
     13 C         139.7076  140.6706  168.2822 C.ar    1  UNL1        0.0701
     14 C         139.2349  139.5306  167.4297 C.ar    1  UNL1        0.0803
     15 N         139.2664  139.6486  165.9347 N.ar    1  UNL1       -0.3216
     16 C         139.7707  140.9067  165.2922 C.ar    1  UNL1        0.0988
     17 N         140.3381  142.4010  161.6597 N.pl3   1  UNL1       -0.3005
     18 C         141.5972  142.0838  160.9087 C.3     1  UNL1        0.1083
     19 C         141.6288  142.2019  159.4136 C.3     1  UNL1        0.0938
     20 N         140.4012  142.6371  158.6696 N.3     1  UNL1       -0.2686
     21 C         140.4327  142.7552  157.1746 C.3     1  UNL1        0.0897
     22 C         139.1421  142.9543  159.4206 C.3     1  UNL1        0.0938
     23 C         139.1105  142.8362  160.9156 C.3     1  UNL1        0.1083
     24 C         139.6760  140.5526  169.7773 C.2     1  UNL1        0.0774
     25 O         138.8217  141.4839  170.5853 O.co2   1  UNL1       -0.5444
     26 O         140.4988  139.5033  170.4643 O.co2   1  UNL1       -0.5444
@<TRIPOS>UNITY_ATOM_ATTR
25 1
charge -1
@<TRIPOS>BOND
     1     2     1    1
     2     2     3    1
     3     3     4    1
     4     4     5    1
     5     5     6   ar
     6     6    17    1
     7    17    18    1
     8    18    19    1
     9    19    20    1
    10    20    21    1
    11    20    22    1
    12    22    23    1
    13     6     7   ar
    14     7     8    1
    15     7     9   ar
    16     9    10   ar
    17    10    11   ar
    18    11    12    2
    19    11    13   ar
    20    13    24    1
    21    24    25   ar
    22    24    26   ar
    23    13    14   ar
    24    14    15   ar
    25    15    16   ar
    26    15     2    1
    27    16     5   ar
    28    23    17    1
    29    16    10   ar
@<TRIPOS>MOLECULE
*****
 26 29 0 0 0
SMALL
GASTEIGER

@<TRIPOS>ATOM
      1 C         143.6963  140.8994  160.2736 C.3     1  UNL1        0.0284
      2 C         142.9043  141.3861  161.4508 C.3     1  UNL1        0.1292
      3 C         142.9429  140.6293  162.7453 C.3     1  UNL1        0.2278
      4 O         142.1508  141.1159  163.9225 O.3     1  UNL1       -0.4707
      5 C         141.3201  142.3593  163.8052 C.ar    1  UNL1        0.1697
      6 C         140.5280  142.8459  164.9824 C.ar    1  UNL1        0.1116
      7 C         139.6973  144.0893  164.8652 C.ar    1  UNL1        0.1565
      8 F         138.9053  144.5759  166.0424 F       1  UNL1       -0.2028
      9 C         139.6587  144.8462  163.5706 C.ar    1  UNL1        0.0357
     10 C         140.4507  144.3596  162.3934 C.ar    1  UNL1        0.0601
     11 C         140.4121  145.1164  161.0989 C.ar    1  UNL1        0.1997
     12 O         139.5814  146.3599  160.9816 O.2     1  UNL1       -0.2864
     13 C         141.2042  144.6297  159.9217 C.ar    1  UNL1        0.0701
     14 C         142.0349  143.3863  160.0390 C.ar    1  UNL1        0.0803
     15 N         142.0735  142.6295  161.3335 N.ar    1  UNL1       -0.3216
     16 C         141.2815  143.1161  162.5107 C.ar    1  UNL1        0.0988
     17 N         140.5667  142.0891  166.2769 N.pl3   1  UNL1       -0.3005
     18 C         141.4994  142.5197  167.3699 C.3     1  UNL1        0.1083
     19 C         141.5380  141.7629  168.6644 C.3     1  UNL1        0.0938
     20 N         140.6439  140.5754  168.8659 N.3     1  UNL1       -0.2686
     21 C         140.6825  139.8186  170.1605 C.3     1  UNL1        0.0897
     22 C         139.7112  140.1448  167.7729 C.3     1  UNL1        0.0938
     23 C         139.6726  140.9016  166.4784 C.3     1  UNL1        0.1083
     24 C         141.1655  145.3866  158.6272 C.2     1  UNL1        0.0774
     25 O         139.9131  145.3974  157.8019 O.co2   1  UNL1       -0.5444
     26 O         142.3793  146.1327  158.1581 O.co2   1  UNL1       -0.5444
@<TRIPOS>UNITY_ATOM_ATTR
25 1
charge -1
@<TRIPOS>BOND
     1     2     1    1
     2     2     3    1
     3     3     4    1
     4     4     5    1
     5     5     6   ar
     6     6    17    1
     7    17    18    1
     8    18    19    1
     9    19    20    1
    10    20    21    1
    11    20    22    1
    12    22    23    1
    13     6     7   ar
    14     7     8    1
    15     7     9   ar
    16     9    10   ar
    17    10    11   ar
    18    11    12    2
    19    11    13   ar
    20    13    24    1
    21    24    25   ar
    22    24    26   ar
    23    13    14   ar
    24    14    15   ar
    25    15    16   ar
    26    15     2    1
    27    16     5   ar
    28    23    17    1
    29    16    10   ar
@<TRIPOS>MOLECULE
*****
 26 29 0 0 0
SMALL
GASTEIGER

@<TRIPOS>ATOM
      1 C         138.5834  144.8729  165.4413 C.3     1  UNL1        0.0284
      2 C         139.6953  143.9927  164.9524 C.3     1  UNL1        0.1292
      3 C         140.0624  143.9862  163.4981 C.3     1  UNL1        0.2278
      4 O         141.1743  143.1060  163.0092 O.3     1  UNL1       -0.4707
      5 C         141.9190  142.2324  163.9746 C.ar    1  UNL1        0.1697
      6 C         143.0309  141.3522  163.4857 C.ar    1  UNL1        0.1116
      7 C         143.7757  140.4786  164.4511 C.ar    1  UNL1        0.1565
      8 F         144.8875  139.5985  163.9622 F       1  UNL1       -0.2028
      9 C         143.4085  140.4852  165.9055 C.ar    1  UNL1        0.0357
     10 C         142.2967  141.3653  166.3944 C.ar    1  UNL1        0.0601
     11 C         141.9295  141.3719  167.8488 C.ar    1  UNL1        0.1997
     12 O         142.6743  140.4983  168.8143 O.2     1  UNL1       -0.2864
     13 C         140.8176  142.2521  168.3377 C.ar    1  UNL1        0.0701
     14 C         140.0729  143.1257  167.3722 C.ar    1  UNL1        0.0803
     15 N         140.4400  143.1191  165.9178 N.ar    1  UNL1       -0.3216
     16 C         141.5519  142.2390  165.4289 C.ar    1  UNL1        0.0988
     17 N         143.3980  141.3457  162.0314 N.pl3   1  UNL1       -0.3005
     18 C         144.2387  142.4513  161.4650 C.3     1  UNL1        0.1083
     19 C         144.6059  142.4447  160.0106 C.3     1  UNL1        0.0938
     20 N         144.1323  141.3325  159.1226 N.3     1  UNL1       -0.2686
     21 C         144.4994  141.3259  157.6682 C.3     1  UNL1        0.0897
     22 C         143.2916  140.2268  159.6889 C.3     1  UNL1        0.0938
     23 C         142.9244  140.2334  161.1433 C.3     1  UNL1        0.1083
     24 C         140.4505  142.2586  169.7921 C.2     1  UNL1        0.0774
     25 O         141.2916  143.0185  170.7745 O.co2   1  UNL1       -0.5444
     26 O         139.2424  141.5052  170.2640 O.co2   1  UNL1       -0.5444
@<TRIPOS>UNITY_ATOM_ATTR
25 1
charge -1
@<TRIPOS>BOND
     1     2     1    1
     2     2     3    1
     3     3     4    1
     4     4     5    1
     5     5     6   ar
     6     6    17    1
     7    17    18    1
     8    18    19    1
     9    19    20    1
    10    20    21    1
    11    20    22    1
    12    22    23    1
    13     6     7   ar
    14     7     8    1
    15     7     9   ar
    16     9    10   ar
    17    10    11   ar
    18    11    12    2
    19    11    13   ar
    20    13    24    1
    21    24    25   ar
    22    24    26   ar
    23    13    14   ar
    24    14    15   ar
    25    15    16   ar
    26    15     2    1
    27    16     5   ar
    28    23    17    1
    29    16    10   ar
