@<TRIPOS>MOLECULE
*****
 32 36 0 0 0
SMALL
GASTEIGER

@<TRIPOS>ATOM
      1 C         139.0146  141.5060  162.9299 C.2     1  UNL1        0.2496
      2 O         138.0628  142.6104  162.5773 O.2     1  UNL1       -0.2699
      3 N         139.7680  140.7911  161.8477 N.am    1  UNL1       -0.2661
      4 C         139.6736  141.0686  160.3766 C.3     1  UNL1        0.1236
      5 C         140.5953  140.1221  159.6663 C.ar    1  UNL1        0.0338
      6 C         141.1066  139.7087  158.3181 C.ar    1  UNL1        0.0991
      7 N         142.0867  138.5907  158.5169 N.ar    1  UNL1       -0.2271
      8 N         142.1812  138.3132  159.9880 N.ar    1  UNL1       -0.1680
      9 C         141.2594  139.2597  160.6983 C.ar    1  UNL1        0.0981
     10 C         140.7482  139.6731  162.0466 C.3     1  UNL1        0.1414
     11 C         142.8401  137.8758  157.4347 C.ar    1  UNL1        0.1042
     12 C         143.6712  138.6550  156.4589 C.ar    1  UNL1        0.1181
     13 N         144.4246  137.9401  155.3767 N.ar    1  UNL1       -0.2384
     14 C         144.3469  136.4459  155.2701 C.ar    1  UNL1        0.1285
     15 C         143.5158  135.6666  156.2459 C.ar    1  UNL1        0.1607
     16 F         143.4381  134.1724  156.1393 F       1  UNL1       -0.2025
     17 C         142.7624  136.3816  157.3281 C.ar    1  UNL1        0.0520
     18 C         138.5439  139.6705  166.4170 C.ar    1  UNL1        0.0686
     19 C         139.6098  140.3377  167.2347 C.ar    1  UNL1        0.0103
     20 C         140.4773  141.3944  166.6175 C.ar    1  UNL1        0.0008
     21 C         140.2790  141.7838  165.1826 C.ar    1  UNL1        0.0045
     22 C         139.2131  141.1166  164.3648 C.ar    1  UNL1        0.0543
     23 C         138.3456  140.0600  164.9820 C.ar    1  UNL1        0.0148
     24 C         141.1465  142.8405  164.5654 C.ar    1  UNL1        0.0024
     25 C         140.6322  144.2420  164.4192 C.ar    1  UNL1        0.0001
     26 C         141.4997  145.2986  163.8020 C.ar    1  UNL1        0.0023
     27 C         142.8814  144.9538  163.3310 C.ar    1  UNL1        0.0296
     28 C         143.3957  143.5523  163.4772 C.ar    1  UNL1        0.1401
     29 F         144.7775  143.2075  163.0062 F       1  UNL1       -0.2042
     30 C         142.5282  142.4957  164.0944 C.ar    1  UNL1        0.0296
     31 N         136.8090  137.5572  167.6514 N.1     1  UNL1       -0.1908
     32 C         137.6764  138.6139  167.0342 C.1     1  UNL1        0.1004
@<TRIPOS>BOND
     1    31    32    3
     2    32    18    1
     3    18    19   ar
     4    19    20   ar
     5    20    21   ar
     6    21    24    1
     7    24    25   ar
     8    25    26   ar
     9    26    27   ar
    10    27    28   ar
    11    28    29    1
    12    28    30   ar
    13    21    22   ar
    14    22     1    1
    15     1     2    2
    16     1     3   am
    17     3     4    1
    18     4     5    1
    19     5     6   ar
    20     6     7   ar
    21     7    11    1
    22    11    12   ar
    23    12    13   ar
    24    13    14   ar
    25    14    15   ar
    26    15    16    1
    27    15    17   ar
    28     7     8   ar
    29     8     9   ar
    30     9    10    1
    31    22    23   ar
    32    23    18   ar
    33    30    24   ar
    34    10     3    1
    35     9     5   ar
    36    17    11   ar
@<TRIPOS>MOLECULE
*****
 32 36 0 0 0
SMALL
GASTEIGER

@<TRIPOS>ATOM
      1 C         142.4368  141.6405  165.3202 C.2     1  UNL1        0.2496
      2 O         143.2560  142.8938  165.4105 O.2     1  UNL1       -0.2699
      3 N         142.2616  140.9527  163.9987 N.am    1  UNL1       -0.2661
      4 C         142.8420  141.3979  162.6892 C.3     1  UNL1        0.1236
      5 C         142.4143  140.4193  161.6359 C.ar    1  UNL1        0.0338
      6 C         142.5087  140.0897  160.1757 C.ar    1  UNL1        0.0991
      7 N         141.7222  138.8358  159.9317 N.ar    1  UNL1       -0.2271
      8 N         141.1418  138.3906  161.2413 N.ar    1  UNL1       -0.1680
      9 C         141.5695  139.3693  162.2945 C.ar    1  UNL1        0.0981
     10 C         141.4751  139.6989  163.7548 C.3     1  UNL1        0.1414
     11 C         141.5470  138.1481  158.6103 C.ar    1  UNL1        0.1042
     12 C         140.2119  138.1657  157.9268 C.ar    1  UNL1        0.1181
     13 N         140.0366  137.4779  156.6054 N.ar    1  UNL1       -0.2384
     14 C         141.1966  136.7724  155.9674 C.ar    1  UNL1        0.1285
     15 C         142.5317  136.7548  156.6509 C.ar    1  UNL1        0.1607
     16 F         143.6916  136.0493  156.0129 F       1  UNL1       -0.2025
     17 C         142.7069  137.4426  157.9723 C.ar    1  UNL1        0.0520
     18 C         141.9374  139.6255  168.7026 C.ar    1  UNL1        0.0686
     19 C         140.5050  139.9441  169.0135 C.ar    1  UNL1        0.0103
     20 C         139.7165  140.8281  168.0933 C.ar    1  UNL1        0.0008
     21 C         140.3604  141.3936  166.8622 C.ar    1  UNL1        0.0045
     22 C         141.7929  141.0751  166.5512 C.ar    1  UNL1        0.0543
     23 C         142.5813  140.1910  167.4714 C.ar    1  UNL1        0.0148
     24 C         139.5719  142.2776  165.9420 C.ar    1  UNL1        0.0024
     25 C         139.7356  143.7671  166.0102 C.ar    1  UNL1        0.0001
     26 C         138.9471  144.6512  165.0900 C.ar    1  UNL1        0.0023
     27 C         137.9950  144.0457  164.1016 C.ar    1  UNL1        0.0296
     28 C         137.8313  142.5563  164.0335 C.ar    1  UNL1        0.1401
     29 F         136.8791  141.9508  163.0451 F       1  UNL1       -0.2042
     30 C         138.6198  141.6722  164.9536 C.ar    1  UNL1        0.0296
     31 N         143.5144  137.8574  170.5430 N.1     1  UNL1       -0.1908
     32 C         142.7259  138.7414  169.6228 C.1     1  UNL1        0.1004
@<TRIPOS>BOND
     1    31    32    3
     2    32    18    1
     3    18    19   ar
     4    19    20   ar
     5    20    21   ar
     6    21    24    1
     7    24    25   ar
     8    25    26   ar
     9    26    27   ar
    10    27    28   ar
    11    28    29    1
    12    28    30   ar
    13    21    22   ar
    14    22     1    1
    15     1     2    2
    16     1     3   am
    17     3     4    1
    18     4     5    1
    19     5     6   ar
    20     6     7   ar
    21     7    11    1
    22    11    12   ar
    23    12    13   ar
    24    13    14   ar
    25    14    15   ar
    26    15    16    1
    27    15    17   ar
    28     7     8   ar
    29     8     9   ar
    30     9    10    1
    31    22    23   ar
    32    23    18   ar
    33    30    24   ar
    34    10     3    1
    35     9     5   ar
    36    17    11   ar
@<TRIPOS>MOLECULE
*****
 32 36 0 0 0
SMALL
GASTEIGER

@<TRIPOS>ATOM
      1 C         141.1018  142.3322  165.9042 C.2     1  UNL1        0.2496
      2 O         139.8215  143.1008  166.0456 O.2     1  UNL1       -0.2699
      3 N         141.7109  142.1327  164.5480 N.am    1  UNL1       -0.2661
      4 C         141.1574  142.6403  163.2496 C.3     1  UNL1        0.1236
      5 C         142.0849  142.2119  162.1512 C.ar    1  UNL1        0.0338
      6 C         142.3159  142.2608  160.6700 C.ar    1  UNL1        0.0991
      7 N         143.5856  141.5186  160.3741 N.ar    1  UNL1       -0.2271
      8 N         144.1390  141.0111  161.6726 N.ar    1  UNL1       -0.1680
      9 C         143.2116  141.4395  162.7709 C.ar    1  UNL1        0.0981
     10 C         142.9805  141.3905  164.2522 C.3     1  UNL1        0.1414
     11 C         144.1946  141.3192  159.0180 C.ar    1  UNL1        0.1042
     12 C         143.8132  140.1261  158.1926 C.ar    1  UNL1        0.1181
     13 N         144.4223  139.9266  156.8365 N.ar    1  UNL1       -0.2384
     14 C         145.4128  140.9202  156.3056 C.ar    1  UNL1        0.1285
     15 C         145.7943  142.1132  157.1310 C.ar    1  UNL1        0.1607
     16 F         146.7848  143.1067  156.6001 F       1  UNL1       -0.2025
     17 C         145.1851  142.3126  158.4872 C.ar    1  UNL1        0.0520
     18 C         143.4489  142.0132  169.0885 C.ar    1  UNL1        0.0686
     19 C         143.1154  140.6249  169.5485 C.ar    1  UNL1        0.0103
     20 C         142.1108  139.8058  168.7936 C.ar    1  UNL1        0.0008
     21 C         141.4396  140.3748  167.5789 C.ar    1  UNL1        0.0045
     22 C         141.7730  141.7631  167.1189 C.ar    1  UNL1        0.0543
     23 C         142.7776  142.5822  167.8737 C.ar    1  UNL1        0.0148
     24 C         140.4350  139.5556  166.8241 C.ar    1  UNL1        0.0024
     25 C         138.9980  139.5483  167.2542 C.ar    1  UNL1        0.0001
     26 C         137.9935  138.7292  166.4993 C.ar    1  UNL1        0.0023
     27 C         138.4259  137.9173  165.3145 C.ar    1  UNL1        0.0296
     28 C         139.8629  137.9246  164.8844 C.ar    1  UNL1        0.1401
     29 F         140.2953  137.1127  163.6996 F       1  UNL1       -0.2042
     30 C         140.8675  138.7437  165.6392 C.ar    1  UNL1        0.0296
     31 N         145.4580  143.6515  170.5982 N.1     1  UNL1       -0.1908
     32 C         144.4534  142.8324  169.8433 C.1     1  UNL1        0.1004
@<TRIPOS>BOND
     1    31    32    3
     2    32    18    1
     3    18    19   ar
     4    19    20   ar
     5    20    21   ar
     6    21    24    1
     7    24    25   ar
     8    25    26   ar
     9    26    27   ar
    10    27    28   ar
    11    28    29    1
    12    28    30   ar
    13    21    22   ar
    14    22     1    1
    15     1     2    2
    16     1     3   am
    17     3     4    1
    18     4     5    1
    19     5     6   ar
    20     6     7   ar
    21     7    11    1
    22    11    12   ar
    23    12    13   ar
    24    13    14   ar
    25    14    15   ar
    26    15    16    1
    27    15    17   ar
    28     7     8   ar
    29     8     9   ar
    30     9    10    1
    31    22    23   ar
    32    23    18   ar
    33    30    24   ar
    34    10     3    1
    35     9     5   ar
    36    17    11   ar
@<TRIPOS>MOLECULE
*****
 32 36 0 0 0
SMALL
GASTEIGER

@<TRIPOS>ATOM
      1 C         143.1889  140.7214  165.0499 C.2     1  UNL1        0.2496
      2 O         144.3457  139.7665  165.0546 O.2     1  UNL1       -0.2699
      3 N         142.8643  141.5003  163.8098 N.am    1  UNL1       -0.2661
      4 C         143.6026  141.4298  162.5060 C.3     1  UNL1        0.1236
      5 C         142.9391  142.3724  161.5461 C.ar    1  UNL1        0.0338
      6 C         142.9853  142.9114  160.1470 C.ar    1  UNL1        0.0991
      7 N         141.8655  143.8975  159.9929 N.ar    1  UNL1       -0.2271
      8 N         141.1272  143.9678  161.2968 N.ar    1  UNL1       -0.1680
      9 C         141.7907  143.0253  162.2567 C.ar    1  UNL1        0.0981
     10 C         141.7445  142.4863  163.6558 C.3     1  UNL1        0.1414
     11 C         141.5409  144.6763  158.7528 C.ar    1  UNL1        0.1042
     12 C         140.3323  145.5642  158.7196 C.ar    1  UNL1        0.1181
     13 N         140.0078  146.3430  157.4795 N.ar    1  UNL1       -0.2384
     14 C         140.8918  146.2341  156.2725 C.ar    1  UNL1        0.1285
     15 C         142.1004  145.3462  156.3057 C.ar    1  UNL1        0.1607
     16 F         142.9843  145.2373  155.0988 F       1  UNL1       -0.2025
     17 C         142.4249  144.5673  157.5459 C.ar    1  UNL1        0.0520
     18 C         142.0117  141.9526  168.6345 C.ar    1  UNL1        0.0686
     19 C         140.6924  141.2495  168.7565 C.ar    1  UNL1        0.0103
     20 C         140.2052  140.3703  167.6431 C.ar    1  UNL1        0.0008
     21 C         141.0374  140.1942  166.4076 C.ar    1  UNL1        0.0045
     22 C         142.3567  140.8974  166.2854 C.ar    1  UNL1        0.0543
     23 C         142.8439  141.7766  167.3989 C.ar    1  UNL1        0.0148
     24 C         140.5502  139.3151  165.2942 C.ar    1  UNL1        0.0024
     25 C         141.2512  138.0225  164.9977 C.ar    1  UNL1        0.0001
     26 C         140.7641  137.1434  163.8842 C.ar    1  UNL1        0.0023
     27 C         139.5759  137.5567  163.0673 C.ar    1  UNL1        0.0296
     28 C         138.8749  138.8492  163.3638 C.ar    1  UNL1        0.1401
     29 F         137.6867  139.2626  162.5469 F       1  UNL1       -0.2042
     30 C         139.3620  139.7284  164.4772 C.ar    1  UNL1        0.0296
     31 N         142.9860  143.7110  170.8613 N.1     1  UNL1       -0.1908
     32 C         142.4989  142.8318  169.7479 C.1     1  UNL1        0.1004
@<TRIPOS>BOND
     1    31    32    3
     2    32    18    1
     3    18    19   ar
     4    19    20   ar
     5    20    21   ar
     6    21    24    1
     7    24    25   ar
     8    25    26   ar
     9    26    27   ar
    10    27    28   ar
    11    28    29    1
    12    28    30   ar
    13    21    22   ar
    14    22     1    1
    15     1     2    2
    16     1     3   am
    17     3     4    1
    18     4     5    1
    19     5     6   ar
    20     6     7   ar
    21     7    11    1
    22    11    12   ar
    23    12    13   ar
    24    13    14   ar
    25    14    15   ar
    26    15    16    1
    27    15    17   ar
    28     7     8   ar
    29     8     9   ar
    30     9    10    1
    31    22    23   ar
    32    23    18   ar
    33    30    24   ar
    34    10     3    1
    35     9     5   ar
    36    17    11   ar
@<TRIPOS>MOLECULE
*****
 32 36 0 0 0
SMALL
GASTEIGER

@<TRIPOS>ATOM
      1 C         139.8848  140.2595  165.0923 C.2     1  UNL1        0.2496
      2 O         138.4013  140.2141  165.3097 O.2     1  UNL1       -0.2699
      3 N         140.4569  139.9156  163.7490 N.am    1  UNL1       -0.2661
      4 C         139.6744  139.5103  162.5350 C.3     1  UNL1        0.1236
      5 C         140.6457  139.2608  161.4196 C.ar    1  UNL1        0.0338
      6 C         140.7625  138.8562  159.9799 C.ar    1  UNL1        0.0991
      7 N         142.2174  138.8571  159.6146 N.ar    1  UNL1       -0.2271
      8 N         142.9997  139.2623  160.8286 N.ar    1  UNL1       -0.1680
      9 C         142.0284  139.5118  161.9441 C.ar    1  UNL1        0.0981
     10 C         141.9117  139.9165  163.3838 C.3     1  UNL1        0.1414
     11 C         142.7894  138.5132  158.2714 C.ar    1  UNL1        0.1042
     12 C         143.5368  139.5503  157.4866 C.ar    1  UNL1        0.1181
     13 N         144.1088  139.2064  156.1433 N.ar    1  UNL1       -0.2384
     14 C         143.9334  137.8253  155.5847 C.ar    1  UNL1        0.1285
     15 C         143.1860  136.7882  156.3694 C.ar    1  UNL1        0.1607
     16 F         143.0107  135.4072  155.8108 F       1  UNL1       -0.2025
     17 C         142.6140  137.1322  157.7128 C.ar    1  UNL1        0.0520
     18 C         142.1931  139.9981  168.3101 C.ar    1  UNL1        0.0686
     19 C         142.6191  141.4274  168.4702 C.ar    1  UNL1        0.0103
     20 C         142.1337  142.4674  167.5043 C.ar    1  UNL1        0.0008
     21 C         141.2223  142.0781  166.3784 C.ar    1  UNL1        0.0045
     22 C         140.7962  140.6488  166.2182 C.ar    1  UNL1        0.0543
     23 C         141.2816  139.6089  167.1841 C.ar    1  UNL1        0.0148
     24 C         140.7369  143.1181  165.4125 C.ar    1  UNL1        0.0024
     25 C         139.3997  143.7660  165.6174 C.ar    1  UNL1        0.0001
     26 C         138.9143  144.8060  164.6516 C.ar    1  UNL1        0.0023
     27 C         139.7661  145.1980  163.4808 C.ar    1  UNL1        0.0296
     28 C         141.1034  144.5501  163.2759 C.ar    1  UNL1        0.1401
     29 F         141.9552  144.9421  162.1051 F       1  UNL1       -0.2042
     30 C         141.5887  143.5101  164.2417 C.ar    1  UNL1        0.0296
     31 N         143.1638  137.9182  170.2418 N.1     1  UNL1       -0.1908
     32 C         142.6784  138.9582  169.2759 C.1     1  UNL1        0.1004
@<TRIPOS>BOND
     1    31    32    3
     2    32    18    1
     3    18    19   ar
     4    19    20   ar
     5    20    21   ar
     6    21    24    1
     7    24    25   ar
     8    25    26   ar
     9    26    27   ar
    10    27    28   ar
    11    28    29    1
    12    28    30   ar
    13    21    22   ar
    14    22     1    1
    15     1     2    2
    16     1     3   am
    17     3     4    1
    18     4     5    1
    19     5     6   ar
    20     6     7   ar
    21     7    11    1
    22    11    12   ar
    23    12    13   ar
    24    13    14   ar
    25    14    15   ar
    26    15    16    1
    27    15    17   ar
    28     7     8   ar
    29     8     9   ar
    30     9    10    1
    31    22    23   ar
    32    23    18   ar
    33    30    24   ar
    34    10     3    1
    35     9     5   ar
    36    17    11   ar
@<TRIPOS>MOLECULE
*****
 32 36 0 0 0
SMALL
GASTEIGER

@<TRIPOS>ATOM
      1 C         141.0971  138.9503  162.9543 C.2     1  UNL1        0.2496
      2 O         141.9777  137.7675  162.6794 O.2     1  UNL1       -0.2699
      3 N         140.5873  139.7860  161.8178 N.am    1  UNL1       -0.2661
      4 C         140.8722  139.5627  160.3621 C.3     1  UNL1        0.1236
      5 C         140.1641  140.6305  159.5821 C.ar    1  UNL1        0.0338
      6 C         139.9026  141.1523  158.2003 C.ar    1  UNL1        0.0991
      7 N         139.0183  142.3582  158.3199 N.ar    1  UNL1       -0.2271
      8 N         138.7335  142.5815  159.7756 N.ar    1  UNL1       -0.1680
      9 C         139.4416  141.5137  160.5557 C.ar    1  UNL1        0.0981
     10 C         139.7031  140.9918  161.9374 C.3     1  UNL1        0.1414
     11 C         138.5086  143.1939  157.1835 C.ar    1  UNL1        0.1042
     12 C         137.1627  142.9071  156.5863 C.ar    1  UNL1        0.1181
     13 N         136.6530  143.7428  155.4499 N.ar    1  UNL1       -0.2384
     14 C         137.4890  144.8654  154.9104 C.ar    1  UNL1        0.1285
     15 C         138.8349  145.1522  155.5075 C.ar    1  UNL1        0.1607
     16 F         139.6709  146.2747  154.9680 F       1  UNL1       -0.2025
     17 C         139.3446  144.3164  156.6440 C.ar    1  UNL1        0.0520
     18 C         139.1200  139.0580  166.3938 C.ar    1  UNL1        0.0686
     19 C         139.9846  139.9913  167.1885 C.ar    1  UNL1        0.0103
     20 C         141.2199  140.5775  166.5719 C.ar    1  UNL1        0.0008
     21 C         141.5907  140.2306  165.1605 C.ar    1  UNL1        0.0045
     22 C         140.7263  139.2973  164.3657 C.ar    1  UNL1        0.0543
     23 C         139.4910  138.7110  164.9823 C.ar    1  UNL1        0.0148
     24 C         142.8260  140.8169  164.5439 C.ar    1  UNL1        0.0024
     25 C         144.1050  140.0332  164.5366 C.ar    1  UNL1        0.0001
     26 C         145.3403  140.6195  163.9199 C.ar    1  UNL1        0.0023
     27 C         145.2967  141.9894  163.3106 C.ar    1  UNL1        0.0296
     28 C         144.0177  142.7731  163.3178 C.ar    1  UNL1        0.1401
     29 F         143.9741  144.1431  162.7085 F       1  UNL1       -0.2042
     30 C         142.7824  142.1868  163.9345 C.ar    1  UNL1        0.0296
     31 N         136.6494  137.8854  167.6271 N.1     1  UNL1       -0.1908
     32 C         137.8847  138.4717  167.0104 C.1     1  UNL1        0.1004
@<TRIPOS>BOND
     1    31    32    3
     2    32    18    1
     3    18    19   ar
     4    19    20   ar
     5    20    21   ar
     6    21    24    1
     7    24    25   ar
     8    25    26   ar
     9    26    27   ar
    10    27    28   ar
    11    28    29    1
    12    28    30   ar
    13    21    22   ar
    14    22     1    1
    15     1     2    2
    16     1     3   am
    17     3     4    1
    18     4     5    1
    19     5     6   ar
    20     6     7   ar
    21     7    11    1
    22    11    12   ar
    23    12    13   ar
    24    13    14   ar
    25    14    15   ar
    26    15    16    1
    27    15    17   ar
    28     7     8   ar
    29     8     9   ar
    30     9    10    1
    31    22    23   ar
    32    23    18   ar
    33    30    24   ar
    34    10     3    1
    35     9     5   ar
    36    17    11   ar
@<TRIPOS>MOLECULE
*****
 32 36 0 0 0
SMALL
GASTEIGER

@<TRIPOS>ATOM
      1 C         141.3178  139.3077  164.6630 C.2     1  UNL1        0.2496
      2 O         141.8043  137.8889  164.6419 O.2     1  UNL1       -0.2699
      3 N         140.8336  139.9535  163.3987 N.am    1  UNL1       -0.2661
      4 C         140.7772  139.3092  162.0452 C.3     1  UNL1        0.1236
      5 C         140.2295  140.3144  161.0759 C.ar    1  UNL1        0.0338
      6 C         139.8562  140.5375  159.6403 C.ar    1  UNL1        0.0991
      7 N         139.3432  141.9408  159.5074 N.ar    1  UNL1       -0.2271
      8 N         139.3996  142.5850  160.8610 N.ar    1  UNL1       -0.1680
      9 C         139.9473  141.5798  161.8303 C.ar    1  UNL1        0.0981
     10 C         140.3207  141.3568  163.2659 C.3     1  UNL1        0.1414
     11 C         138.8590  142.5865  158.2432 C.ar    1  UNL1        0.1042
     12 C         139.6077  143.7482  157.6599 C.ar    1  UNL1        0.1181
     13 N         139.1235  144.3939  156.3956 N.ar    1  UNL1       -0.2384
     14 C         137.8905  143.8780  155.7145 C.ar    1  UNL1        0.1285
     15 C         137.1418  142.7164  156.2977 C.ar    1  UNL1        0.1607
     16 F         135.9090  142.2006  155.6166 F       1  UNL1       -0.2025
     17 C         137.6261  142.0707  157.5621 C.ar    1  UNL1        0.0520
     18 C         140.2696  140.5752  168.2748 C.ar    1  UNL1        0.0686
     19 C         141.3110  141.6266  168.5195 C.ar    1  UNL1        0.0103
     20 C         142.3547  141.9051  167.4788 C.ar    1  UNL1        0.0008
     21 C         142.3570  141.1321  166.1933 C.ar    1  UNL1        0.0045
     22 C         141.3156  140.0807  165.9485 C.ar    1  UNL1        0.0543
     23 C         140.2719  139.8023  166.9892 C.ar    1  UNL1        0.0148
     24 C         143.4007  141.4106  165.1525 C.ar    1  UNL1        0.0024
     25 C         144.3724  140.3377  164.7590 C.ar    1  UNL1        0.0001
     26 C         145.4161  140.6162  163.7183 C.ar    1  UNL1        0.0023
     27 C         145.4881  141.9674  163.0710 C.ar    1  UNL1        0.0296
     28 C         144.5164  143.0403  163.4646 C.ar    1  UNL1        0.1401
     29 F         144.5885  144.3915  162.8173 F       1  UNL1       -0.2042
     30 C         143.4727  142.7618  164.5053 C.ar    1  UNL1        0.0296
     31 N         138.1822  140.0184  170.3563 N.1     1  UNL1       -0.1908
     32 C         139.2259  140.2968  169.3156 C.1     1  UNL1        0.1004
@<TRIPOS>BOND
     1    31    32    3
     2    32    18    1
     3    18    19   ar
     4    19    20   ar
     5    20    21   ar
     6    21    24    1
     7    24    25   ar
     8    25    26   ar
     9    26    27   ar
    10    27    28   ar
    11    28    29    1
    12    28    30   ar
    13    21    22   ar
    14    22     1    1
    15     1     2    2
    16     1     3   am
    17     3     4    1
    18     4     5    1
    19     5     6   ar
    20     6     7   ar
    21     7    11    1
    22    11    12   ar
    23    12    13   ar
    24    13    14   ar
    25    14    15   ar
    26    15    16    1
    27    15    17   ar
    28     7     8   ar
    29     8     9   ar
    30     9    10    1
    31    22    23   ar
    32    23    18   ar
    33    30    24   ar
    34    10     3    1
    35     9     5   ar
    36    17    11   ar
@<TRIPOS>MOLECULE
*****
 32 36 0 0 0
SMALL
GASTEIGER

@<TRIPOS>ATOM
      1 C         141.2685  140.9806  163.0954 C.2     1  UNL1        0.2496
      2 O         142.1752  140.8346  164.2814 O.2     1  UNL1       -0.2699
      3 N         141.4969  140.1468  161.8696 N.am    1  UNL1       -0.2661
      4 C         142.5848  139.1308  161.6845 C.3     1  UNL1        0.1236
      5 C         142.4377  138.5386  160.3143 C.ar    1  UNL1        0.0338
      6 C         143.0192  137.5447  159.3530 C.ar    1  UNL1        0.0991
      7 N         142.1997  137.5804  158.0970 N.ar    1  UNL1       -0.2271
      8 N         141.1118  138.5964  158.2822 N.ar    1  UNL1       -0.1680
      9 C         141.2589  139.1886  159.6525 C.ar    1  UNL1        0.0981
     10 C         140.6774  140.1825  160.6137 C.3     1  UNL1        0.1414
     11 C         142.4281  136.7466  156.8713 C.ar    1  UNL1        0.1042
     12 C         141.8535  137.1764  155.5540 C.ar    1  UNL1        0.1181
     13 N         142.0818  136.3426  154.3283 N.ar    1  UNL1       -0.2384
     14 C         142.8848  135.0788  154.4198 C.ar    1  UNL1        0.1285
     15 C         143.4594  134.6490  155.7370 C.ar    1  UNL1        0.1607
     16 F         144.2624  133.3853  155.8284 F       1  UNL1       -0.2025
     17 C         143.2310  135.4829  156.9628 C.ar    1  UNL1        0.0520
     18 C         139.1509  144.2908  162.5399 C.ar    1  UNL1        0.0686
     19 C         137.8635  143.9203  163.2147 C.ar    1  UNL1        0.0103
     20 C         137.7111  142.5699  163.8498 C.ar    1  UNL1        0.0008
     21 C         138.8461  141.5900  163.8100 C.ar    1  UNL1        0.0045
     22 C         140.1335  141.9605  163.1352 C.ar    1  UNL1        0.0543
     23 C         140.2859  143.3108  162.5002 C.ar    1  UNL1        0.0148
     24 C         138.6937  140.2397  164.4451 C.ar    1  UNL1        0.0024
     25 C         138.9327  138.9993  163.6362 C.ar    1  UNL1        0.0001
     26 C         138.7804  137.6489  164.2713 C.ar    1  UNL1        0.0023
     27 C         138.3890  137.5389  165.7151 C.ar    1  UNL1        0.0296
     28 C         138.1500  138.7793  166.5240 C.ar    1  UNL1        0.1401
     29 F         137.7586  138.6694  167.9678 F       1  UNL1       -0.2042
     30 C         138.3024  140.1297  165.8889 C.ar    1  UNL1        0.0296
     31 N         139.4556  146.9916  161.2698 N.1     1  UNL1       -0.1908
     32 C         139.3032  145.6412  161.9049 C.1     1  UNL1        0.1004
@<TRIPOS>BOND
     1    31    32    3
     2    32    18    1
     3    18    19   ar
     4    19    20   ar
     5    20    21   ar
     6    21    24    1
     7    24    25   ar
     8    25    26   ar
     9    26    27   ar
    10    27    28   ar
    11    28    29    1
    12    28    30   ar
    13    21    22   ar
    14    22     1    1
    15     1     2    2
    16     1     3   am
    17     3     4    1
    18     4     5    1
    19     5     6   ar
    20     6     7   ar
    21     7    11    1
    22    11    12   ar
    23    12    13   ar
    24    13    14   ar
    25    14    15   ar
    26    15    16    1
    27    15    17   ar
    28     7     8   ar
    29     8     9   ar
    30     9    10    1
    31    22    23   ar
    32    23    18   ar
    33    30    24   ar
    34    10     3    1
    35     9     5   ar
    36    17    11   ar
@<TRIPOS>MOLECULE
*****
 32 36 0 0 0
SMALL
GASTEIGER

@<TRIPOS>ATOM
      1 C         141.8084  139.7136  165.5304 C.2     1  UNL1        0.2496
      2 O         143.0010  138.8545  165.8295 O.2     1  UNL1       -0.2699
      3 N         141.2393  139.7499  164.1430 N.am    1  UNL1       -0.2661
      4 C         141.7532  138.9857  162.9590 C.3     1  UNL1        0.1236
      5 C         140.8880  139.3203  161.7802 C.ar    1  UNL1        0.0338
      6 C         140.6709  139.0548  160.3200 C.ar    1  UNL1        0.0991
      7 N         139.4880  139.8618  159.8730 N.ar    1  UNL1       -0.2271
      8 N         138.9741  140.6259  161.0571 N.ar    1  UNL1       -0.1680
      9 C         139.8394  140.2913  162.2358 C.ar    1  UNL1        0.0981
     10 C         140.0565  140.5568  163.6960 C.3     1  UNL1        0.1414
     11 C         138.9190  139.8981  158.4857 C.ar    1  UNL1        0.1042
     12 C         139.3914  138.9157  157.4552 C.ar    1  UNL1        0.1181
     13 N         138.8224  138.9520  156.0679 N.ar    1  UNL1       -0.2384
     14 C         137.7809  139.9708  155.7108 C.ar    1  UNL1        0.1285
     15 C         137.3084  140.9532  156.7412 C.ar    1  UNL1        0.1607
     16 F         136.2669  141.9719  156.3841 F       1  UNL1       -0.2025
     17 C         137.8775  140.9168  158.1286 C.ar    1  UNL1        0.0520
     18 C         139.6609  140.7095  168.7158 C.ar    1  UNL1        0.0686
     19 C         139.9375  142.1816  168.7951 C.ar    1  UNL1        0.0103
     20 C         140.8376  142.8311  167.7862 C.ar    1  UNL1        0.0008
     21 C         141.4613  142.0085  166.6980 C.ar    1  UNL1        0.0045
     22 C         141.1848  140.5363  166.6186 C.ar    1  UNL1        0.0543
     23 C         140.2846  139.8868  167.6275 C.ar    1  UNL1        0.0148
     24 C         142.3614  142.6579  165.6890 C.ar    1  UNL1        0.0024
     25 C         143.8428  142.4304  165.7493 C.ar    1  UNL1        0.0001
     26 C         144.7429  143.0798  164.7403 C.ar    1  UNL1        0.0023
     27 C         144.1617  143.9568  163.6712 C.ar    1  UNL1        0.0296
     28 C         142.6803  144.1843  163.6110 C.ar    1  UNL1        0.1401
     29 F         142.0990  145.0613  162.5418 F       1  UNL1       -0.2042
     30 C         141.7801  143.5349  164.6199 C.ar    1  UNL1        0.0296
     31 N         137.8606  139.4106  170.7337 N.1     1  UNL1       -0.1908
     32 C         138.7608  140.0600  169.7247 C.1     1  UNL1        0.1004
@<TRIPOS>BOND
     1    31    32    3
     2    32    18    1
     3    18    19   ar
     4    19    20   ar
     5    20    21   ar
     6    21    24    1
     7    24    25   ar
     8    25    26   ar
     9    26    27   ar
    10    27    28   ar
    11    28    29    1
    12    28    30   ar
    13    21    22   ar
    14    22     1    1
    15     1     2    2
    16     1     3   am
    17     3     4    1
    18     4     5    1
    19     5     6   ar
    20     6     7   ar
    21     7    11    1
    22    11    12   ar
    23    12    13   ar
    24    13    14   ar
    25    14    15   ar
    26    15    16    1
    27    15    17   ar
    28     7     8   ar
    29     8     9   ar
    30     9    10    1
    31    22    23   ar
    32    23    18   ar
    33    30    24   ar
    34    10     3    1
    35     9     5   ar
    36    17    11   ar
