@<TRIPOS>MOLECULE
*****
 36 39 0 0 0
SMALL
GASTEIGER

@<TRIPOS>ATOM
      1 N         142.5972  139.4629  159.9169 N.3     1  UNL1       -0.2688
      2 C         141.9408  138.4199  160.7720 C.3     1  UNL1        0.0741
      3 C         142.3945  138.2160  162.1872 C.3     1  UNL1        0.0370
      4 C         143.5045  139.0552  162.7472 C.3     1  UNL1        0.0760
      5 C         144.1609  140.0983  161.8920 C.3     1  UNL1        0.0370
      6 C         143.7072  140.3021  160.4769 C.3     1  UNL1        0.0741
      7 N         143.9581  138.8514  164.1623 N.pl3   1  UNL1       -0.2899
      8 H         144.8600  138.5012  164.3445 H       1  UNL1        0.1511
      9 C         143.0376  139.1811  165.2999 C.ar    1  UNL1        0.2890
     10 N         143.3483  139.0253  166.7591 N.ar    1  UNL1       -0.1948
     11 C         142.1476  139.4724  167.5390 C.ar    1  UNL1        0.1203
     12 C         141.8769  139.5419  169.0127 C.ar    1  UNL1        0.0269
     13 C         140.5533  140.0435  169.5092 C.ar    1  UNL1        0.0548
     14 C         139.5005  140.4756  168.5321 C.ar    1  UNL1        0.0077
     15 C         139.7712  140.4061  167.0584 C.ar    1  UNL1        0.0393
     16 C         141.0948  139.9045  166.5618 C.ar    1  UNL1        0.1660
     17 O         141.6449  139.7245  165.1780 O.2     1  UNL1       -0.4239
     18 C         140.2825  140.1130  170.9830 C.2     1  UNL1        0.2428
     19 N         139.5382  139.0017  171.6620 N.am    1  UNL1       -0.3253
     20 O         140.7562  141.2937  171.7777 O.2     1  UNL1       -0.2704
     21 H         139.2273  138.2268  171.1404 H       1  UNL1        0.1453
     22 H         139.3604  139.0473  172.6293 H       1  UNL1        0.1453
     23 C         142.1436  139.6668  158.5017 C.3     1  UNL1        0.0993
     24 C         139.9986  137.1622  156.2936 C.ar    1  UNL1        0.1686
     25 C         140.3705  138.3437  157.1395 C.ar    1  UNL1        0.0365
     26 C         141.7717  138.4853  157.6557 C.ar    1  UNL1        0.0000
     27 C         142.8011  137.4453  157.3259 C.ar    1  UNL1        0.0365
     28 C         142.4293  136.2637  156.4799 C.ar    1  UNL1        0.1686
     29 C         141.0281  136.1222  155.9637 C.ar    1  UNL1        0.2074
     30 F         140.6562  134.9407  155.1177 F       1  UNL1       -0.1977
     31 O         138.5974  137.0206  155.7774 O.3     1  UNL1       -0.4731
     32 C         136.8326  137.5927  153.9586 C.3     1  UNL1        0.0512
     33 C         138.2654  137.4541  154.3803 C.3     1  UNL1        0.2056
     34 O         143.4587  135.2238  156.1501 O.3     1  UNL1       -0.4731
     35 C         143.7104  134.0902  157.0995 C.3     1  UNL1        0.2056
     36 C         143.1579  132.7273  156.8036 C.3     1  UNL1        0.0512
@<TRIPOS>BOND
     1    32    33    1
     2    33    31    1
     3    31    24    1
     4    24    25   ar
     5    25    26   ar
     6    26    23    1
     7    23     1    1
     8     1     2    1
     9     2     3    1
    10     3     4    1
    11     4     7    1
    12     7     9    1
    13     9    10   ar
    14    10    11   ar
    15    11    12   ar
    16    12    13   ar
    17    13    18    1
    18    18    19   am
    19    18    20    2
    20    13    14   ar
    21    14    15   ar
    22    15    16   ar
    23    16    17   ar
    24     4     5    1
    25     5     6    1
    26    26    27   ar
    27    27    28   ar
    28    28    34    1
    29    34    35    1
    30    35    36    1
    31    28    29   ar
    32    29    30    1
    33    29    24   ar
    34     6     1    1
    35    17     9   ar
    36    16    11   ar
    37     7     8    1
    38    19    21    1
    39    19    22    1
@<TRIPOS>MOLECULE
*****
 36 39 0 0 0
SMALL
GASTEIGER

@<TRIPOS>ATOM
      1 N         140.3418  139.3931  160.6881 N.3     1  UNL1       -0.2688
      2 C         138.9135  139.7254  161.0032 C.3     1  UNL1        0.0741
      3 C         138.3394  139.3726  162.3434 C.3     1  UNL1        0.0370
      4 C         139.1938  138.6875  163.3684 C.3     1  UNL1        0.0760
      5 C         140.6222  138.3552  163.0533 C.3     1  UNL1        0.0370
      6 C         141.1962  138.7080  161.7131 C.3     1  UNL1        0.0741
      7 N         138.6197  138.3347  164.7086 N.pl3   1  UNL1       -0.2899
      8 H         138.0224  137.5574  164.7990 H       1  UNL1        0.1511
      9 C         138.9558  139.1663  165.9109 C.ar    1  UNL1        0.2890
     10 N         139.6976  140.4700  165.9019 N.ar    1  UNL1       -0.1948
     11 C         139.8093  140.9496  167.3187 C.ar    1  UNL1        0.1203
     12 C         140.4367  142.1734  167.9176 C.ar    1  UNL1        0.0269
     13 C         140.3914  142.3899  169.4011 C.ar    1  UNL1        0.0548
     14 C         139.7186  141.3826  170.2859 C.ar    1  UNL1        0.0077
     15 C         139.0912  140.1588  169.6870 C.ar    1  UNL1        0.0393
     16 C         139.1365  139.9423  168.2034 C.ar    1  UNL1        0.1660
     17 O         138.6090  138.8402  167.3333 O.2     1  UNL1       -0.4239
     18 C         141.0188  143.6137  170.0001 C.2     1  UNL1        0.2428
     19 N         140.1827  144.8296  170.2699 N.am    1  UNL1       -0.3253
     20 O         142.4822  143.6217  170.3291 O.2     1  UNL1       -0.2704
     21 H         139.2222  144.8243  170.0539 H       1  UNL1        0.1453
     22 H         140.5945  145.6328  170.6629 H       1  UNL1        0.1453
     23 C         140.9159  139.7459  159.3479 C.3     1  UNL1        0.0993
     24 C         142.3639  137.0218  156.8514 C.ar    1  UNL1        0.1686
     25 C         142.2947  138.0578  157.9340 C.ar    1  UNL1        0.0365
     26 C         140.9851  138.7099  158.2654 C.ar    1  UNL1        0.0000
     27 C         139.7448  138.3260  157.5143 C.ar    1  UNL1        0.0365
     28 C         139.8140  137.2899  156.4317 C.ar    1  UNL1        0.1686
     29 C         141.1235  136.6378  156.1003 C.ar    1  UNL1        0.2074
     30 F         141.1928  135.6019  155.0178 F       1  UNL1       -0.1977
     31 O         143.6735  136.3697  156.5200 O.3     1  UNL1       -0.4731
     32 C         143.4158  134.0986  157.7550 C.3     1  UNL1        0.0512
     33 C         143.7896  134.8743  156.5268 C.3     1  UNL1        0.2056
     34 O         138.5737  136.9060  155.6807 O.3     1  UNL1       -0.4731
     35 C         138.0160  137.8247  154.6343 C.3     1  UNL1        0.2056
     36 C         137.3222  137.2578  153.4312 C.3     1  UNL1        0.0512
@<TRIPOS>BOND
     1    32    33    1
     2    33    31    1
     3    31    24    1
     4    24    25   ar
     5    25    26   ar
     6    26    23    1
     7    23     1    1
     8     1     2    1
     9     2     3    1
    10     3     4    1
    11     4     7    1
    12     7     9    1
    13     9    10   ar
    14    10    11   ar
    15    11    12   ar
    16    12    13   ar
    17    13    18    1
    18    18    19   am
    19    18    20    2
    20    13    14   ar
    21    14    15   ar
    22    15    16   ar
    23    16    17   ar
    24     4     5    1
    25     5     6    1
    26    26    27   ar
    27    27    28   ar
    28    28    34    1
    29    34    35    1
    30    35    36    1
    31    28    29   ar
    32    29    30    1
    33    29    24   ar
    34     6     1    1
    35    17     9   ar
    36    16    11   ar
    37     7     8    1
    38    19    21    1
    39    19    22    1
@<TRIPOS>MOLECULE
*****
 36 39 0 0 0
SMALL
GASTEIGER

@<TRIPOS>ATOM
      1 N         140.0678  139.1586  160.8281 N.3     1  UNL1       -0.2688
      2 C         140.9181  138.2865  161.7035 C.3     1  UNL1        0.0741
      3 C         140.4498  137.9231  163.0815 C.3     1  UNL1        0.0370
      4 C         139.1313  138.4319  163.5840 C.3     1  UNL1        0.0760
      5 C         138.2810  139.3041  162.7085 C.3     1  UNL1        0.0370
      6 C         138.7492  139.6674  161.3306 C.3     1  UNL1        0.0741
      7 N         138.6630  138.0686  164.9619 N.pl3   1  UNL1       -0.2899
      8 H         138.1605  137.2345  165.1071 H       1  UNL1        0.1511
      9 C         138.9602  138.9760  166.1187 C.ar    1  UNL1        0.2890
     10 N         139.8105  140.2110  166.0747 N.ar    1  UNL1       -0.1948
     11 C         139.8352  140.8061  167.4514 C.ar    1  UNL1        0.1203
     12 C         140.5102  142.0255  168.0057 C.ar    1  UNL1        0.0269
     13 C         140.3501  142.3779  169.4549 C.ar    1  UNL1        0.0548
     14 C         139.5150  141.5107  170.3497 C.ar    1  UNL1        0.0077
     15 C         138.8400  140.2913  169.7954 C.ar    1  UNL1        0.0393
     16 C         139.0002  139.9390  168.3462 C.ar    1  UNL1        0.1660
     17 O         138.4594  138.8079  167.5226 O.2     1  UNL1       -0.4239
     18 C         141.0250  143.5974  170.0093 C.2     1  UNL1        0.2428
     19 N         142.4942  143.5698  170.3104 N.am    1  UNL1       -0.3253
     20 O         140.2308  144.8443  170.2626 O.2     1  UNL1       -0.2704
     21 H         143.0155  142.7513  170.1442 H       1  UNL1        0.1453
     22 H         142.9373  144.3702  170.6743 H       1  UNL1        0.1453
     23 C         140.5360  139.5220  159.4501 C.3     1  UNL1        0.0993
     24 C         144.0912  140.6936  158.1318 C.ar    1  UNL1        0.1686
     25 C         142.8426  139.8816  158.3099 C.ar    1  UNL1        0.0365
     26 C         141.7846  140.3340  159.2721 C.ar    1  UNL1        0.0000
     27 C         141.9751  141.5984  160.0563 C.ar    1  UNL1        0.0365
     28 C         143.2237  142.4104  159.8783 C.ar    1  UNL1        0.1686
     29 C         144.2818  141.9580  158.9161 C.ar    1  UNL1        0.2074
     30 F         145.5303  142.7700  158.7380 F       1  UNL1       -0.1977
     31 O         145.1492  140.2412  157.1696 O.3     1  UNL1       -0.4731
     32 C         145.4323  140.2891  154.5875 C.3     1  UNL1        0.0512
     33 C         145.3887  141.0083  155.9031 C.3     1  UNL1        0.2056
     34 O         143.4142  143.6748  160.6625 O.3     1  UNL1       -0.4731
     35 C         143.9658  143.6170  162.0561 C.3     1  UNL1        0.2056
     36 C         143.4714  144.5754  163.0988 C.3     1  UNL1        0.0512
@<TRIPOS>BOND
     1    32    33    1
     2    33    31    1
     3    31    24    1
     4    24    25   ar
     5    25    26   ar
     6    26    23    1
     7    23     1    1
     8     1     2    1
     9     2     3    1
    10     3     4    1
    11     4     7    1
    12     7     9    1
    13     9    10   ar
    14    10    11   ar
    15    11    12   ar
    16    12    13   ar
    17    13    18    1
    18    18    19   am
    19    18    20    2
    20    13    14   ar
    21    14    15   ar
    22    15    16   ar
    23    16    17   ar
    24     4     5    1
    25     5     6    1
    26    26    27   ar
    27    27    28   ar
    28    28    34    1
    29    34    35    1
    30    35    36    1
    31    28    29   ar
    32    29    30    1
    33    29    24   ar
    34     6     1    1
    35    17     9   ar
    36    16    11   ar
    37     7     8    1
    38    19    21    1
    39    19    22    1
@<TRIPOS>MOLECULE
*****
 36 39 0 0 0
SMALL
GASTEIGER

@<TRIPOS>ATOM
      1 N         140.5465  139.6369  160.1994 N.3     1  UNL1       -0.2688
      2 C         140.1433  138.2982  160.7426 C.3     1  UNL1        0.0741
      3 C         139.4211  138.2077  162.0543 C.3     1  UNL1        0.0370
      4 C         139.1022  139.4559  162.8226 C.3     1  UNL1        0.0760
      5 C         139.5055  140.7947  162.2792 C.3     1  UNL1        0.0370
      6 C         140.2276  140.8852  160.9676 C.3     1  UNL1        0.0741
      7 N         138.3801  139.3654  164.1342 N.pl3   1  UNL1       -0.2899
      8 H         137.5214  138.8872  164.1914 H       1  UNL1        0.1511
      9 C         138.9662  140.0035  165.3586 C.ar    1  UNL1        0.2890
     10 N         139.1700  139.3386  166.6877 N.ar    1  UNL1       -0.1948
     11 C         139.7812  140.3427  167.6195 C.ar    1  UNL1        0.1203
     12 C         140.2018  140.2525  169.0565 C.ar    1  UNL1        0.0269
     13 C         140.7963  141.4478  169.7403 C.ar    1  UNL1        0.0548
     14 C         140.9702  142.7333  168.9871 C.ar    1  UNL1        0.0077
     15 C         140.5496  142.8235  167.5502 C.ar    1  UNL1        0.0393
     16 C         139.9551  141.6282  166.8664 C.ar    1  UNL1        0.1660
     17 O         139.4514  141.4185  165.4691 O.2     1  UNL1       -0.4239
     18 C         141.2170  141.3577  171.1773 C.2     1  UNL1        0.2428
     19 N         142.3760  140.4886  171.5664 N.am    1  UNL1       -0.3253
     20 O         140.4787  142.1367  172.2252 O.2     1  UNL1       -0.2704
     21 H         142.8605  139.9773  170.8786 H       1  UNL1        0.1453
     22 H         142.6521  140.4294  172.5095 H       1  UNL1        0.1453
     23 C         141.2687  139.7275  158.8877 C.3     1  UNL1        0.0993
     24 C         142.3082  136.6709  156.5798 C.ar    1  UNL1        0.1686
     25 C         142.3993  137.7979  157.5655 C.ar    1  UNL1        0.0365
     26 C         141.1776  138.6005  157.9020 C.ar    1  UNL1        0.0000
     27 C         139.8648  138.2762  157.2529 C.ar    1  UNL1        0.0365
     28 C         139.7737  137.1492  156.2671 C.ar    1  UNL1        0.1686
     29 C         140.9954  136.3465  155.9306 C.ar    1  UNL1        0.2074
     30 F         140.9043  135.2196  154.9449 F       1  UNL1       -0.1977
     31 O         143.5299  135.8682  156.2433 O.3     1  UNL1       -0.4731
     32 C         143.4438  133.2918  155.9200 C.3     1  UNL1        0.0512
     33 C         143.6932  134.4835  156.7962 C.3     1  UNL1        0.2056
     34 O         138.4609  136.8249  155.6180 O.3     1  UNL1       -0.4731
     35 C         138.0485  137.5365  154.3637 C.3     1  UNL1        0.2056
     36 C         136.6288  137.9887  154.1901 C.3     1  UNL1        0.0512
@<TRIPOS>BOND
     1    32    33    1
     2    33    31    1
     3    31    24    1
     4    24    25   ar
     5    25    26   ar
     6    26    23    1
     7    23     1    1
     8     1     2    1
     9     2     3    1
    10     3     4    1
    11     4     7    1
    12     7     9    1
    13     9    10   ar
    14    10    11   ar
    15    11    12   ar
    16    12    13   ar
    17    13    18    1
    18    18    19   am
    19    18    20    2
    20    13    14   ar
    21    14    15   ar
    22    15    16   ar
    23    16    17   ar
    24     4     5    1
    25     5     6    1
    26    26    27   ar
    27    27    28   ar
    28    28    34    1
    29    34    35    1
    30    35    36    1
    31    28    29   ar
    32    29    30    1
    33    29    24   ar
    34     6     1    1
    35    17     9   ar
    36    16    11   ar
    37     7     8    1
    38    19    21    1
    39    19    22    1
@<TRIPOS>MOLECULE
*****
 36 39 0 0 0
SMALL
GASTEIGER

@<TRIPOS>ATOM
      1 N         140.3358  138.5064  160.9828 N.3     1  UNL1       -0.2688
      2 C         141.1347  137.8174  162.0491 C.3     1  UNL1        0.0741
      3 C         140.5401  137.5995  163.4089 C.3     1  UNL1        0.0370
      4 C         139.1466  138.0708  163.7024 C.3     1  UNL1        0.0760
      5 C         138.3477  138.7599  162.6360 C.3     1  UNL1        0.0370
      6 C         138.9424  138.9777  161.2763 C.3     1  UNL1        0.0741
      7 N         138.5520  137.8530  165.0621 N.pl3   1  UNL1       -0.2899
      8 H         137.9504  137.0898  165.2198 H       1  UNL1        0.1511
      9 C         138.8739  138.7981  166.1816 C.ar    1  UNL1        0.2890
     10 N         139.7832  139.9880  166.0971 N.ar    1  UNL1       -0.1948
     11 C         139.8143  140.6445  167.4454 C.ar    1  UNL1        0.1203
     12 C         140.5382  141.8550  167.9559 C.ar    1  UNL1        0.0269
     13 C         140.3718  142.2813  169.3844 C.ar    1  UNL1        0.0548
     14 C         139.4816  141.4971  170.3023 C.ar    1  UNL1        0.0077
     15 C         138.7578  140.2866  169.7918 C.ar    1  UNL1        0.0393
     16 C         138.9241  139.8603  168.3634 C.ar    1  UNL1        0.1660
     17 O         138.3429  138.7192  167.5823 O.2     1  UNL1       -0.4239
     18 C         141.0957  143.4918  169.8950 C.2     1  UNL1        0.2428
     19 N         140.3336  144.7461  170.2051 N.am    1  UNL1       -0.3253
     20 O         142.5816  143.4481  170.0955 O.2     1  UNL1       -0.2704
     21 H         139.3584  144.7747  170.0735 H       1  UNL1        0.1453
     22 H         140.8087  145.5406  170.5402 H       1  UNL1        0.1453
     23 C         140.9304  138.7243  159.6230 C.3     1  UNL1        0.0993
     24 C         143.0905  142.0213  160.0854 C.ar    1  UNL1        0.1686
     25 C         142.0174  140.9912  160.2785 C.ar    1  UNL1        0.0365
     26 C         142.0035  139.7544  159.4299 C.ar    1  UNL1        0.0000
     27 C         143.0628  139.5476  158.3882 C.ar    1  UNL1        0.0365
     28 C         144.1360  140.5778  158.1951 C.ar    1  UNL1        0.1686
     29 C         144.1498  141.8146  159.0437 C.ar    1  UNL1        0.2074
     30 F         145.2229  142.8447  158.8506 F       1  UNL1       -0.1977
     31 O         143.1043  143.2581  160.9340 O.3     1  UNL1       -0.4731
     32 C         143.6464  144.3724  163.2175 C.3     1  UNL1        0.0512
     33 C         143.8784  143.2776  162.2186 C.3     1  UNL1        0.2056
     34 O         145.1953  140.3710  157.1534 O.3     1  UNL1       -0.4731
     35 C         144.8177  140.3010  155.7034 C.3     1  UNL1        0.2056
     36 C         145.6979  140.9353  154.6676 C.3     1  UNL1        0.0512
@<TRIPOS>BOND
     1    32    33    1
     2    33    31    1
     3    31    24    1
     4    24    25   ar
     5    25    26   ar
     6    26    23    1
     7    23     1    1
     8     1     2    1
     9     2     3    1
    10     3     4    1
    11     4     7    1
    12     7     9    1
    13     9    10   ar
    14    10    11   ar
    15    11    12   ar
    16    12    13   ar
    17    13    18    1
    18    18    19   am
    19    18    20    2
    20    13    14   ar
    21    14    15   ar
    22    15    16   ar
    23    16    17   ar
    24     4     5    1
    25     5     6    1
    26    26    27   ar
    27    27    28   ar
    28    28    34    1
    29    34    35    1
    30    35    36    1
    31    28    29   ar
    32    29    30    1
    33    29    24   ar
    34     6     1    1
    35    17     9   ar
    36    16    11   ar
    37     7     8    1
    38    19    21    1
    39    19    22    1
@<TRIPOS>MOLECULE
*****
 36 39 0 0 0
SMALL
GASTEIGER

@<TRIPOS>ATOM
      1 N         141.0206  138.6464  160.1300 N.3     1  UNL1       -0.2688
      2 C         142.0399  138.1740  161.1239 C.3     1  UNL1        0.0741
      3 C         141.6238  137.8486  162.5278 C.3     1  UNL1        0.0370
      4 C         140.1884  137.9955  162.9378 C.3     1  UNL1        0.0760
      5 C         139.1691  138.4679  161.9438 C.3     1  UNL1        0.0370
      6 C         139.5852  138.7933  160.5399 C.3     1  UNL1        0.0741
      7 N         139.7723  137.6701  164.3417 N.pl3   1  UNL1       -0.2899
      8 H         139.2231  136.8727  164.5200 H       1  UNL1        0.1511
      9 C         140.1930  138.5596  165.4739 C.ar    1  UNL1        0.2890
     10 N         139.2755  139.2946  166.4055 N.ar    1  UNL1       -0.1948
     11 C         140.1204  140.0595  167.3806 C.ar    1  UNL1        0.1203
     12 C         139.7648  140.9609  168.5256 C.ar    1  UNL1        0.0269
     13 C         140.8491  141.6000  169.3416 C.ar    1  UNL1        0.0548
     14 C         142.2889  141.3377  169.0128 C.ar    1  UNL1        0.0077
     15 C         142.6444  140.4362  167.8678 C.ar    1  UNL1        0.0393
     16 C         141.5602  139.7971  167.0518 C.ar    1  UNL1        0.1660
     17 O         141.6051  138.8702  165.8733 O.2     1  UNL1       -0.4239
     18 C         140.4935  142.5015  170.4866 C.2     1  UNL1        0.2428
     19 N         140.0788  143.9190  170.2244 N.am    1  UNL1       -0.3253
     20 O         140.5526  141.9855  171.8938 O.2     1  UNL1       -0.2704
     21 H         140.0400  144.2576  169.3008 H       1  UNL1        0.1453
     22 H         139.8454  144.5106  170.9759 H       1  UNL1        0.1453
     23 C         141.4367  138.9718  158.7260 C.3     1  UNL1        0.0993
     24 C         140.4115  136.6847  155.6490 C.ar    1  UNL1        0.1686
     25 C         140.3681  137.7657  156.6880 C.ar    1  UNL1        0.0365
     26 C         141.4801  137.8909  157.6870 C.ar    1  UNL1        0.0000
     27 C         142.6354  136.9351  157.6468 C.ar    1  UNL1        0.0365
     28 C         142.6789  135.8541  156.6078 C.ar    1  UNL1        0.1686
     29 C         141.5669  135.7289  155.6089 C.ar    1  UNL1        0.2074
     30 F         141.6103  134.6480  154.5698 F       1  UNL1       -0.1977
     31 O         139.2995  136.5595  154.6501 O.3     1  UNL1       -0.4731
     32 C         137.1607  137.5343  153.5432 C.3     1  UNL1        0.0512
     33 C         138.1853  137.5637  154.6383 C.3     1  UNL1        0.2056
     34 O         143.8342  134.8984  156.5677 O.3     1  UNL1       -0.4731
     35 C         143.8099  133.6567  157.4087 C.3     1  UNL1        0.2056
     36 C         143.0859  132.4359  156.9232 C.3     1  UNL1        0.0512
@<TRIPOS>BOND
     1    32    33    1
     2    33    31    1
     3    31    24    1
     4    24    25   ar
     5    25    26   ar
     6    26    23    1
     7    23     1    1
     8     1     2    1
     9     2     3    1
    10     3     4    1
    11     4     7    1
    12     7     9    1
    13     9    10   ar
    14    10    11   ar
    15    11    12   ar
    16    12    13   ar
    17    13    18    1
    18    18    19   am
    19    18    20    2
    20    13    14   ar
    21    14    15   ar
    22    15    16   ar
    23    16    17   ar
    24     4     5    1
    25     5     6    1
    26    26    27   ar
    27    27    28   ar
    28    28    34    1
    29    34    35    1
    30    35    36    1
    31    28    29   ar
    32    29    30    1
    33    29    24   ar
    34     6     1    1
    35    17     9   ar
    36    16    11   ar
    37     7     8    1
    38    19    21    1
    39    19    22    1
@<TRIPOS>MOLECULE
*****
 36 39 0 0 0
SMALL
GASTEIGER

@<TRIPOS>ATOM
      1 N         139.3061  139.0778  160.2024 N.3     1  UNL1       -0.2688
      2 C         140.2554  138.1371  160.8834 C.3     1  UNL1        0.0741
      3 C         140.0839  137.8227  162.3401 C.3     1  UNL1        0.0370
      4 C         138.9631  138.4490  163.1157 C.3     1  UNL1        0.0760
      5 C         138.0137  139.3897  162.4345 C.3     1  UNL1        0.0370
      6 C         138.1852  139.7041  160.9779 C.3     1  UNL1        0.0741
      7 N         138.7916  138.1347  164.5723 N.pl3   1  UNL1       -0.2899
      8 H         138.4388  137.2581  164.8484 H       1  UNL1        0.1511
      9 C         139.1577  139.1559  165.6081 C.ar    1  UNL1        0.2890
     10 N         138.9295  139.0342  167.0856 N.ar    1  UNL1       -0.1948
     11 C         139.4470  140.2813  167.7390 C.ar    1  UNL1        0.1203
     12 C         139.4900  140.7194  169.1729 C.ar    1  UNL1        0.0269
     13 C         140.0812  142.0501  169.5331 C.ar    1  UNL1        0.0548
     14 C         140.6293  142.9426  168.4594 C.ar    1  UNL1        0.0077
     15 C         140.5863  142.5045  167.0255 C.ar    1  UNL1        0.0393
     16 C         139.9952  141.1738  166.6653 C.ar    1  UNL1        0.1660
     17 O         139.8164  140.4783  165.3483 O.2     1  UNL1       -0.4239
     18 C         140.1241  142.4883  170.9671 C.2     1  UNL1        0.2428
     19 N         139.0093  143.3181  171.5314 N.am    1  UNL1       -0.3253
     20 O         141.2819  142.0967  171.8366 O.2     1  UNL1       -0.2704
     21 H         138.2494  143.5751  170.9607 H       1  UNL1        0.1453
     22 H         139.0375  143.6057  172.4726 H       1  UNL1        0.1453
     23 C         139.4775  139.3922  158.7457 C.3     1  UNL1        0.0993
     24 C         141.7651  137.1256  156.4263 C.ar    1  UNL1        0.1686
     25 C         140.5665  137.6384  157.1683 C.ar    1  UNL1        0.0365
     26 C         140.6760  138.8794  158.0038 C.ar    1  UNL1        0.0000
     27 C         141.9841  139.6075  158.0973 C.ar    1  UNL1        0.0365
     28 C         143.1827  139.0947  157.3554 C.ar    1  UNL1        0.1686
     29 C         143.0732  137.8538  156.5199 C.ar    1  UNL1        0.2074
     30 F         144.2717  137.3410  155.7779 F       1  UNL1       -0.1977
     31 O         141.6556  135.8847  155.5908 O.3     1  UNL1       -0.4731
     32 C         141.8013  133.2934  155.4724 C.3     1  UNL1        0.0512
     33 C         142.2297  134.5918  156.0895 C.3     1  UNL1        0.2056
     34 O         144.4907  139.8229  157.4489 O.3     1  UNL1       -0.4731
     35 C         144.5694  141.2741  157.0780 C.3     1  UNL1        0.2056
     36 C         144.0533  141.7373  155.7478 C.3     1  UNL1        0.0512
@<TRIPOS>BOND
     1    32    33    1
     2    33    31    1
     3    31    24    1
     4    24    25   ar
     5    25    26   ar
     6    26    23    1
     7    23     1    1
     8     1     2    1
     9     2     3    1
    10     3     4    1
    11     4     7    1
    12     7     9    1
    13     9    10   ar
    14    10    11   ar
    15    11    12   ar
    16    12    13   ar
    17    13    18    1
    18    18    19   am
    19    18    20    2
    20    13    14   ar
    21    14    15   ar
    22    15    16   ar
    23    16    17   ar
    24     4     5    1
    25     5     6    1
    26    26    27   ar
    27    27    28   ar
    28    28    34    1
    29    34    35    1
    30    35    36    1
    31    28    29   ar
    32    29    30    1
    33    29    24   ar
    34     6     1    1
    35    17     9   ar
    36    16    11   ar
    37     7     8    1
    38    19    21    1
    39    19    22    1
@<TRIPOS>MOLECULE
*****
 36 39 0 0 0
SMALL
GASTEIGER

@<TRIPOS>ATOM
      1 N         139.6733  138.5509  161.7815 N.3     1  UNL1       -0.2688
      2 C         138.6295  139.5915  162.0601 C.3     1  UNL1        0.0741
      3 C         138.1138  139.7817  163.4558 C.3     1  UNL1        0.0370
      4 C         138.6418  138.9312  164.5729 C.3     1  UNL1        0.0760
      5 C         139.6856  137.8905  164.2942 C.3     1  UNL1        0.0370
      6 C         140.2013  137.7004  162.8986 C.3     1  UNL1        0.0741
      7 N         138.1261  139.1214  165.9685 N.pl3   1  UNL1       -0.2899
      8 H         137.2087  138.8461  166.1960 H       1  UNL1        0.1511
      9 C         139.0082  139.7310  167.0174 C.ar    1  UNL1        0.2890
     10 N         140.1523  140.6692  166.7709 N.ar    1  UNL1       -0.1948
     11 C         140.7523  141.0274  168.0982 C.ar    1  UNL1        0.1203
     12 C         141.9029  141.9137  168.4732 C.ar    1  UNL1        0.0269
     13 C         142.2801  142.0832  169.9150 C.ar    1  UNL1        0.0548
     14 C         141.5067  141.3665  170.9819 C.ar    1  UNL1        0.0077
     15 C         140.3561  140.4802  170.6069 C.ar    1  UNL1        0.0393
     16 C         139.9789  140.3107  169.1651 C.ar    1  UNL1        0.1660
     17 O         138.9010  139.5095  168.4971 O.2     1  UNL1       -0.4239
     18 C         143.4307  142.9695  170.2901 C.2     1  UNL1        0.2428
     19 N         143.2425  144.0503  171.3131 N.am    1  UNL1       -0.3253
     20 O         144.7695  142.7750  169.6422 O.2     1  UNL1       -0.2704
     21 H         142.3638  144.1780  171.7383 H       1  UNL1        0.1453
     22 H         143.9976  144.6320  171.5592 H       1  UNL1        0.1453
     23 C         140.1890  138.3607  160.3858 C.3     1  UNL1        0.0993
     24 C         143.2847  139.5625  158.2128 C.ar    1  UNL1        0.1686
     25 C         142.1375  138.7327  158.7080 C.ar    1  UNL1        0.0365
     26 C         141.3362  139.1905  159.8906 C.ar    1  UNL1        0.0000
     27 C         141.6822  140.4780  160.5779 C.ar    1  UNL1        0.0365
     28 C         142.8295  141.3079  160.0827 C.ar    1  UNL1        0.1686
     29 C         143.6307  140.8502  158.9001 C.ar    1  UNL1        0.2074
     30 F         144.7779  141.6800  158.4049 F       1  UNL1       -0.1977
     31 O         144.0859  139.1048  157.0302 O.3     1  UNL1       -0.4731
     32 C         143.7815  136.9132  155.6686 C.3     1  UNL1        0.0512
     33 C         143.4194  138.3468  155.9207 C.3     1  UNL1        0.2056
     34 O         143.1754  142.5954  160.7701 O.3     1  UNL1       -0.4731
     35 C         143.4443  142.6091  162.2457 C.3     1  UNL1        0.2056
     36 C         144.2374  143.7281  162.8532 C.3     1  UNL1        0.0512
@<TRIPOS>BOND
     1    32    33    1
     2    33    31    1
     3    31    24    1
     4    24    25   ar
     5    25    26   ar
     6    26    23    1
     7    23     1    1
     8     1     2    1
     9     2     3    1
    10     3     4    1
    11     4     7    1
    12     7     9    1
    13     9    10   ar
    14    10    11   ar
    15    11    12   ar
    16    12    13   ar
    17    13    18    1
    18    18    19   am
    19    18    20    2
    20    13    14   ar
    21    14    15   ar
    22    15    16   ar
    23    16    17   ar
    24     4     5    1
    25     5     6    1
    26    26    27   ar
    27    27    28   ar
    28    28    34    1
    29    34    35    1
    30    35    36    1
    31    28    29   ar
    32    29    30    1
    33    29    24   ar
    34     6     1    1
    35    17     9   ar
    36    16    11   ar
    37     7     8    1
    38    19    21    1
    39    19    22    1
@<TRIPOS>MOLECULE
*****
 36 39 0 0 0
SMALL
GASTEIGER

@<TRIPOS>ATOM
      1 N         138.9706  140.1314  160.5616 N.3     1  UNL1       -0.2688
      2 C         138.0643  140.7014  161.6121 C.3     1  UNL1        0.0741
      3 C         138.0296  140.0936  162.9830 C.3     1  UNL1        0.0370
      4 C         138.9012  138.9156  163.3033 C.3     1  UNL1        0.0760
      5 C         139.8076  138.3455  162.2528 C.3     1  UNL1        0.0370
      6 C         139.8422  138.9534  160.8819 C.3     1  UNL1        0.0741
      7 N         138.8665  138.3077  164.6742 N.pl3   1  UNL1       -0.2899
      8 H         138.6734  137.3485  164.7825 H       1  UNL1        0.1511
      9 C         139.1262  139.1614  165.8800 C.ar    1  UNL1        0.2890
     10 N         139.9073  140.4417  165.9021 N.ar    1  UNL1       -0.1948
     11 C         139.9142  140.9562  167.3111 C.ar    1  UNL1        0.1203
     12 C         140.5274  142.1767  167.9310 C.ar    1  UNL1        0.0269
     13 C         140.3639  142.4347  169.3995 C.ar    1  UNL1        0.0548
     14 C         139.5870  141.4723  170.2482 C.ar    1  UNL1        0.0077
     15 C         138.9738  140.2518  169.6283 C.ar    1  UNL1        0.0393
     16 C         139.1373  139.9938  168.1598 C.ar    1  UNL1        0.1660
     17 O         138.6504  138.8845  167.2753 O.2     1  UNL1       -0.4239
     18 C         140.9772  143.6552  170.0195 C.2     1  UNL1        0.2428
     19 N         140.1299  144.8614  170.2976 N.am    1  UNL1       -0.3253
     20 O         142.4376  143.6696  170.3613 O.2     1  UNL1       -0.2704
     21 H         139.1714  144.8520  170.0733 H       1  UNL1        0.1453
     22 H         140.5324  145.6625  170.7045 H       1  UNL1        0.1453
     23 C         139.0053  140.7392  159.1907 C.3     1  UNL1        0.0993
     24 C         141.3905  143.8554  159.7826 C.ar    1  UNL1        0.1686
     25 C         140.6600  142.5657  160.0129 C.ar    1  UNL1        0.0365
     26 C         139.7358  142.0289  158.9604 C.ar    1  UNL1        0.0000
     27 C         139.5421  142.7818  157.6776 C.ar    1  UNL1        0.0365
     28 C         140.2726  144.0716  157.4472 C.ar    1  UNL1        0.1686
     29 C         141.1968  144.6083  158.4997 C.ar    1  UNL1        0.2074
     30 F         141.9273  145.8980  158.2694 F       1  UNL1       -0.1977
     31 O         142.3147  144.3921  160.8351 O.3     1  UNL1       -0.4731
     32 C         140.5641  145.5242  162.3855 C.3     1  UNL1        0.0512
     33 C         141.7948  144.6845  162.2113 C.3     1  UNL1        0.2056
     34 O         140.0789  144.8244  156.1645 O.3     1  UNL1       -0.4731
     35 C         138.7193  144.8963  155.5350 C.3     1  UNL1        0.2056
     36 C         138.1715  146.2171  155.0816 C.3     1  UNL1        0.0512
@<TRIPOS>BOND
     1    32    33    1
     2    33    31    1
     3    31    24    1
     4    24    25   ar
     5    25    26   ar
     6    26    23    1
     7    23     1    1
     8     1     2    1
     9     2     3    1
    10     3     4    1
    11     4     7    1
    12     7     9    1
    13     9    10   ar
    14    10    11   ar
    15    11    12   ar
    16    12    13   ar
    17    13    18    1
    18    18    19   am
    19    18    20    2
    20    13    14   ar
    21    14    15   ar
    22    15    16   ar
    23    16    17   ar
    24     4     5    1
    25     5     6    1
    26    26    27   ar
    27    27    28   ar
    28    28    34    1
    29    34    35    1
    30    35    36    1
    31    28    29   ar
    32    29    30    1
    33    29    24   ar
    34     6     1    1
    35    17     9   ar
    36    16    11   ar
    37     7     8    1
    38    19    21    1
    39    19    22    1
