@<TRIPOS>MOLECULE
*****
 24 26 0 0 0
SMALL
GASTEIGER

@<TRIPOS>ATOM
      1 N         142.8357  143.5283  158.2850 N.3     1  UNL1       -0.2711
      2 C         142.0296  144.7821  158.1178 C.3     1  UNL1        0.0939
      3 C         141.1693  145.2763  159.2428 C.3     1  UNL1        0.1123
      4 N         141.1152  144.5166  160.5350 N.am    1  UNL1       -0.2612
      5 C         140.2549  145.0108  161.6601 C.2     1  UNL1        0.3072
      6 O         139.4488  146.2647  161.4929 O.2     1  UNL1       -0.2523
      7 N         140.2007  144.2512  162.9523 N.am    1  UNL1       -0.2640
      8 C         141.0068  142.9972  163.1196 C.3     1  UNL1        0.0950
      9 C         140.9526  142.2375  164.4118 C.3     1  UNL1        0.0219
     10 C         140.0924  142.7317  165.5368 C.3     1  UNL1        0.0078
     11 C         139.2863  143.9856  165.3696 C.3     1  UNL1        0.0219
     12 C         139.3405  144.7454  164.0774 C.3     1  UNL1        0.0950
     13 C         141.9212  143.2628  160.7022 C.3     1  UNL1        0.1123
     14 C         142.7815  142.7686  159.5772 C.3     1  UNL1        0.0939
     15 C         143.2645  143.2423  155.7385 C.3     1  UNL1        0.0173
     16 C         143.6959  143.0341  157.1599 C.3     1  UNL1        0.0577
     17 C         144.9877  142.3316  157.4563 C.3     1  UNL1        0.0173
     18 C         140.0382  141.9720  166.8291 C.3     1  UNL1        0.0265
     19 C         140.9425  142.3551  167.9628 C.ar    1  UNL1       -0.0222
     20 C         142.3536  141.8479  168.0010 C.ar    1  UNL1       -0.0043
     21 C         143.2580  142.2310  169.1347 C.ar    1  UNL1       -0.0003
     22 C         142.7512  143.1214  170.2304 C.ar    1  UNL1       -0.0000
     23 C         141.3400  143.6286  170.1922 C.ar    1  UNL1       -0.0003
     24 C         140.4357  143.2455  169.0584 C.ar    1  UNL1       -0.0043
@<TRIPOS>BOND
     1    15    16    1
     2    16    17    1
     3    16     1    1
     4     1     2    1
     5     2     3    1
     6     3     4    1
     7     4     5   am
     8     5     6    2
     9     5     7   am
    10     7     8    1
    11     8     9    1
    12     9    10    1
    13    10    18    1
    14    18    19    1
    15    19    20   ar
    16    20    21   ar
    17    21    22   ar
    18    22    23   ar
    19    23    24   ar
    20    10    11    1
    21    11    12    1
    22     4    13    1
    23    13    14    1
    24    14     1    1
    25    12     7    1
    26    24    19   ar
@<TRIPOS>MOLECULE
*****
 24 26 0 0 0
SMALL
GASTEIGER

@<TRIPOS>ATOM
      1 N         139.6051  142.9960  159.8757 N.3     1  UNL1       -0.2711
      2 C         138.9599  141.7555  159.3326 C.3     1  UNL1        0.0939
      3 C         138.5801  140.6399  160.2605 C.3     1  UNL1        0.1123
      4 N         138.8455  140.7646  161.7316 N.am    1  UNL1       -0.2612
      5 C         138.4657  139.6489  162.6595 C.2     1  UNL1        0.3072
      6 O         137.8206  138.4085  162.1163 O.2     1  UNL1       -0.2523
      7 N         138.7311  139.7737  164.1305 N.am    1  UNL1       -0.2640
      8 C         139.3764  141.0142  164.6737 C.3     1  UNL1        0.0950
      9 C         139.6417  141.1389  166.1447 C.3     1  UNL1        0.0219
     10 C         139.2620  140.0232  167.0726 C.3     1  UNL1        0.0078
     11 C         138.6168  138.7828  166.5295 C.3     1  UNL1        0.0219
     12 C         138.3514  138.6580  165.0584 C.3     1  UNL1        0.0950
     13 C         139.4907  142.0050  162.2747 C.3     1  UNL1        0.1123
     14 C         139.8705  143.1207  161.3468 C.3     1  UNL1        0.0939
     15 C         140.6685  145.3340  159.4849 C.3     1  UNL1        0.0173
     16 C         139.9849  144.1117  158.9478 C.3     1  UNL1        0.0577
     17 C         139.6810  144.0050  157.4828 C.3     1  UNL1        0.0173
     18 C         139.5274  140.1480  168.5437 C.3     1  UNL1        0.0265
     19 C         140.6354  141.0325  169.0335 C.ar    1  UNL1       -0.0222
     20 C         142.0429  140.5158  169.0795 C.ar    1  UNL1       -0.0043
     21 C         143.1509  141.4003  169.5693 C.ar    1  UNL1       -0.0003
     22 C         142.8515  142.8015  170.0131 C.ar    1  UNL1       -0.0000
     23 C         141.4440  143.3182  169.9672 C.ar    1  UNL1       -0.0003
     24 C         140.3360  142.4337  169.4773 C.ar    1  UNL1       -0.0043
@<TRIPOS>BOND
     1    15    16    1
     2    16    17    1
     3    16     1    1
     4     1     2    1
     5     2     3    1
     6     3     4    1
     7     4     5   am
     8     5     6    2
     9     5     7   am
    10     7     8    1
    11     8     9    1
    12     9    10    1
    13    10    18    1
    14    18    19    1
    15    19    20   ar
    16    20    21   ar
    17    21    22   ar
    18    22    23   ar
    19    23    24   ar
    20    10    11    1
    21    11    12    1
    22     4    13    1
    23    13    14    1
    24    14     1    1
    25    12     7    1
    26    24    19   ar
@<TRIPOS>MOLECULE
*****
 24 26 0 0 0
SMALL
GASTEIGER

@<TRIPOS>ATOM
      1 N         140.2151  144.8414  158.5299 N.3     1  UNL1       -0.2711
      2 C         139.3491  143.6708  158.1698 C.3     1  UNL1        0.0939
      3 C         138.8891  142.7219  159.2366 C.3     1  UNL1        0.1123
      4 N         139.2952  142.9435  160.6634 N.am    1  UNL1       -0.2612
      5 C         138.8352  141.9946  161.7302 C.2     1  UNL1        0.3072
      6 O         137.9691  140.8241  161.3701 O.2     1  UNL1       -0.2523
      7 N         139.2413  142.2162  163.1570 N.am    1  UNL1       -0.2640
      8 C         140.1075  143.3868  163.5172 C.3     1  UNL1        0.0950
      9 C         140.5136  143.6084  164.9440 C.3     1  UNL1        0.0219
     10 C         140.0536  142.6594  166.0108 C.3     1  UNL1        0.0078
     11 C         139.1875  141.4889  165.6507 C.3     1  UNL1        0.0219
     12 C         138.7814  141.2673  164.2238 C.3     1  UNL1        0.0950
     13 C         140.1613  144.1140  161.0235 C.3     1  UNL1        0.1123
     14 C         140.6213  145.0630  159.9568 C.3     1  UNL1        0.0939
     15 C         142.1334  145.8907  157.1266 C.3     1  UNL1        0.0173
     16 C         140.6751  145.7903  157.4632 C.3     1  UNL1        0.0577
     17 C         139.6768  146.6389  156.7330 C.3     1  UNL1        0.0173
     18 C         140.4598  142.8811  167.4377 C.3     1  UNL1        0.0265
     19 C         140.8821  141.7187  168.2865 C.ar    1  UNL1       -0.0222
     20 C         142.2424  141.1131  168.1057 C.ar    1  UNL1       -0.0043
     21 C         142.6647  139.9507  168.9545 C.ar    1  UNL1       -0.0003
     22 C         141.7266  139.3939  169.9842 C.ar    1  UNL1       -0.0000
     23 C         140.3663  139.9995  170.1649 C.ar    1  UNL1       -0.0003
     24 C         139.9440  141.1620  169.3160 C.ar    1  UNL1       -0.0043
@<TRIPOS>BOND
     1    15    16    1
     2    16    17    1
     3    16     1    1
     4     1     2    1
     5     2     3    1
     6     3     4    1
     7     4     5   am
     8     5     6    2
     9     5     7   am
    10     7     8    1
    11     8     9    1
    12     9    10    1
    13    10    18    1
    14    18    19    1
    15    19    20   ar
    16    20    21   ar
    17    21    22   ar
    18    22    23   ar
    19    23    24   ar
    20    10    11    1
    21    11    12    1
    22     4    13    1
    23    13    14    1
    24    14     1    1
    25    12     7    1
    26    24    19   ar
@<TRIPOS>MOLECULE
*****
 24 26 0 0 0
SMALL
GASTEIGER

@<TRIPOS>ATOM
      1 N         138.5119  140.0123  157.6442 N.3     1  UNL1       -0.2711
      2 C         139.7310  139.1685  157.4167 C.3     1  UNL1        0.0939
      3 C         140.4580  138.5707  158.5847 C.3     1  UNL1        0.1123
      4 N         139.9659  138.8167  159.9801 N.am    1  UNL1       -0.2612
      5 C         140.6929  138.2189  161.1481 C.2     1  UNL1        0.3072
      6 O         141.9120  137.3751  160.9206 O.2     1  UNL1       -0.2523
      7 N         140.2007  138.4649  162.5435 N.am    1  UNL1       -0.2640
      8 C         138.9816  139.3087  162.7710 C.3     1  UNL1        0.0950
      9 C         138.4895  139.5547  164.1664 C.3     1  UNL1        0.0219
     10 C         139.2164  138.9569  165.3344 C.3     1  UNL1        0.0078
     11 C         140.4355  138.1131  165.1069 C.3     1  UNL1        0.0219
     12 C         140.9277  137.8671  163.7114 C.3     1  UNL1        0.0950
     13 C         138.7468  139.6605  160.2076 C.3     1  UNL1        0.1123
     14 C         138.0198  140.2583  159.0396 C.3     1  UNL1        0.0939
     15 C         138.5018  140.8235  155.1760 C.3     1  UNL1        0.0173
     16 C         137.7850  140.6101  156.4762 C.3     1  UNL1        0.0577
     17 C         136.3411  140.9945  156.6084 C.3     1  UNL1        0.0173
     18 C         138.7242  139.2029  166.7299 C.3     1  UNL1        0.0265
     19 C         139.3444  140.2842  167.5642 C.ar    1  UNL1       -0.0222
     20 C         139.2311  140.2362  169.0591 C.ar    1  UNL1       -0.0043
     21 C         139.8512  141.3175  169.8934 C.ar    1  UNL1       -0.0003
     22 C         140.5847  142.4470  169.2327 C.ar    1  UNL1       -0.0000
     23 C         140.6980  142.4950  167.7378 C.ar    1  UNL1       -0.0003
     24 C         140.0778  141.4136  166.9035 C.ar    1  UNL1       -0.0043
@<TRIPOS>BOND
     1    15    16    1
     2    16    17    1
     3    16     1    1
     4     1     2    1
     5     2     3    1
     6     3     4    1
     7     4     5   am
     8     5     6    2
     9     5     7   am
    10     7     8    1
    11     8     9    1
    12     9    10    1
    13    10    18    1
    14    18    19    1
    15    19    20   ar
    16    20    21   ar
    17    21    22   ar
    18    22    23   ar
    19    23    24   ar
    20    10    11    1
    21    11    12    1
    22     4    13    1
    23    13    14    1
    24    14     1    1
    25    12     7    1
    26    24    19   ar
@<TRIPOS>MOLECULE
*****
 24 26 0 0 0
SMALL
GASTEIGER

@<TRIPOS>ATOM
      1 N         143.0571  138.0767  157.6575 N.3     1  UNL1       -0.2711
      2 C         143.5060  139.4774  157.3634 C.3     1  UNL1        0.0939
      3 C         143.7863  140.4273  158.4900 C.3     1  UNL1        0.1123
      4 N         143.6177  139.9764  159.9107 N.am    1  UNL1       -0.2612
      5 C         143.8980  140.9263  161.0373 C.2     1  UNL1        0.3072
      6 O         144.3470  142.3270  160.7432 O.2     1  UNL1       -0.2523
      7 N         143.7294  140.4754  162.4579 N.am    1  UNL1       -0.2640
      8 C         143.2804  139.0747  162.7520 C.3     1  UNL1        0.0950
      9 C         143.1118  138.6239  164.1726 C.3     1  UNL1        0.0219
     10 C         143.3921  139.5737  165.2992 C.3     1  UNL1        0.0078
     11 C         143.8411  140.9744  165.0052 C.3     1  UNL1        0.0219
     12 C         144.0097  141.4253  163.5845 C.3     1  UNL1        0.0950
     13 C         143.1688  138.5758  160.2047 C.3     1  UNL1        0.1123
     14 C         142.8885  137.6259  159.0781 C.3     1  UNL1        0.0939
     15 C         143.9099  136.5616  155.7270 C.3     1  UNL1        0.0173
     16 C         142.7768  137.1269  156.5309 C.3     1  UNL1        0.0577
     17 C         141.3633  136.7424  156.2082 C.3     1  UNL1        0.0173
     18 C         143.2235  139.1228  166.7199 C.3     1  UNL1        0.0265
     19 C         141.9936  139.5071  167.4878 C.ar    1  UNL1       -0.0222
     20 C         140.7093  139.7761  166.7612 C.ar    1  UNL1       -0.0043
     21 C         139.4794  140.1604  167.5290 C.ar    1  UNL1       -0.0003
     22 C         139.5338  140.2758  169.0236 C.ar    1  UNL1       -0.0000
     23 C         140.8182  140.0068  169.7503 C.ar    1  UNL1       -0.0003
     24 C         142.0481  139.6225  168.9823 C.ar    1  UNL1       -0.0043
@<TRIPOS>BOND
     1    15    16    1
     2    16    17    1
     3    16     1    1
     4     1     2    1
     5     2     3    1
     6     3     4    1
     7     4     5   am
     8     5     6    2
     9     5     7   am
    10     7     8    1
    11     8     9    1
    12     9    10    1
    13    10    18    1
    14    18    19    1
    15    19    20   ar
    16    20    21   ar
    17    21    22   ar
    18    22    23   ar
    19    23    24   ar
    20    10    11    1
    21    11    12    1
    22     4    13    1
    23    13    14    1
    24    14     1    1
    25    12     7    1
    26    24    19   ar
@<TRIPOS>MOLECULE
*****
 24 26 0 0 0
SMALL
GASTEIGER

@<TRIPOS>ATOM
      1 N         142.2483  140.8093  160.0101 N.3     1  UNL1       -0.2711
      2 C         141.2440  139.8185  159.5006 C.3     1  UNL1        0.0939
      3 C         140.2758  139.1765  160.4495 C.3     1  UNL1        0.1123
      4 N         140.3119  139.5253  161.9079 N.am    1  UNL1       -0.2612
      5 C         139.3437  138.8833  162.8569 C.2     1  UNL1        0.3072
      6 O         138.3394  137.8925  162.3474 O.2     1  UNL1       -0.2523
      7 N         139.3798  139.2322  164.3153 N.am    1  UNL1       -0.2640
      8 C         140.3841  140.2230  164.8248 C.3     1  UNL1        0.0950
      9 C         140.4202  140.5718  166.2832 C.3     1  UNL1        0.0219
     10 C         139.4520  139.9298  167.2321 C.3     1  UNL1        0.0078
     11 C         138.4477  138.9390  166.7226 C.3     1  UNL1        0.0219
     12 C         138.4116  138.5902  165.2642 C.3     1  UNL1        0.0950
     13 C         141.3162  140.5161  162.4174 C.3     1  UNL1        0.1123
     14 C         142.2844  141.1581  161.4685 C.3     1  UNL1        0.0939
     15 C         144.2572  142.3994  159.5789 C.3     1  UNL1        0.0173
     16 C         143.2165  141.4513  159.0612 C.3     1  UNL1        0.0577
     17 C         143.1439  141.1453  157.5946 C.3     1  UNL1        0.0173
     18 C         139.4881  140.2787  168.6906 C.3     1  UNL1        0.0265
     19 C         140.5891  141.1444  169.2276 C.ar    1  UNL1       -0.0222
     20 C         141.9351  140.5506  169.5203 C.ar    1  UNL1       -0.0043
     21 C         143.0360  141.4163  170.0573 C.ar    1  UNL1       -0.0003
     22 C         142.7910  142.8759  170.3017 C.ar    1  UNL1       -0.0000
     23 C         141.4450  143.4697  170.0090 C.ar    1  UNL1       -0.0003
     24 C         140.3441  142.6039  169.4719 C.ar    1  UNL1       -0.0043
@<TRIPOS>BOND
     1    15    16    1
     2    16    17    1
     3    16     1    1
     4     1     2    1
     5     2     3    1
     6     3     4    1
     7     4     5   am
     8     5     6    2
     9     5     7   am
    10     7     8    1
    11     8     9    1
    12     9    10    1
    13    10    18    1
    14    18    19    1
    15    19    20   ar
    16    20    21   ar
    17    21    22   ar
    18    22    23   ar
    19    23    24   ar
    20    10    11    1
    21    11    12    1
    22     4    13    1
    23    13    14    1
    24    14     1    1
    25    12     7    1
    26    24    19   ar
@<TRIPOS>MOLECULE
*****
 24 26 0 0 0
SMALL
GASTEIGER

@<TRIPOS>ATOM
      1 N         141.8183  138.0239  158.4945 N.3     1  UNL1       -0.2711
      2 C         140.3626  138.3856  158.4955 C.3     1  UNL1        0.0939
      3 C         139.6814  138.7507  159.7811 C.3     1  UNL1        0.1123
      4 N         140.4559  138.7541  161.0656 N.am    1  UNL1       -0.2612
      5 C         139.7747  139.1192  162.3512 C.2     1  UNL1        0.3072
      6 O         138.3190  139.4809  162.3522 O.2     1  UNL1       -0.2523
      7 N         140.5492  139.1227  163.6357 N.am    1  UNL1       -0.2640
      8 C         142.0050  138.7609  163.6347 C.3     1  UNL1        0.0950
      9 C         142.7795  138.7644  164.9193 C.3     1  UNL1        0.0219
     10 C         142.0983  139.1295  166.2048 C.3     1  UNL1        0.0078
     11 C         140.6426  139.4912  166.2059 C.3     1  UNL1        0.0219
     12 C         139.8680  139.4878  164.9213 C.3     1  UNL1        0.0950
     13 C         141.9116  138.3924  161.0646 C.3     1  UNL1        0.1123
     14 C         142.5928  138.0273  159.7791 C.3     1  UNL1        0.0939
     15 C         142.7445  136.2175  156.8730 C.3     1  UNL1        0.0173
     16 C         142.4995  137.6587  157.2090 C.3     1  UNL1        0.0577
     17 C         142.9357  138.7348  156.2594 C.3     1  UNL1        0.0173
     18 C         142.8729  139.1329  167.4894 C.3     1  UNL1        0.0265
     19 C         142.5392  140.1250  168.5638 C.ar    1  UNL1       -0.0222
     20 C         141.8213  139.6764  169.8021 C.ar    1  UNL1       -0.0043
     21 C         141.4876  140.6684  170.8766 C.ar    1  UNL1       -0.0003
     22 C         141.8717  142.1092  170.7127 C.ar    1  UNL1       -0.0000
     23 C         142.5896  142.5578  169.4744 C.ar    1  UNL1       -0.0003
     24 C         142.9233  141.5656  168.3999 C.ar    1  UNL1       -0.0043
@<TRIPOS>BOND
     1    15    16    1
     2    16    17    1
     3    16     1    1
     4     1     2    1
     5     2     3    1
     6     3     4    1
     7     4     5   am
     8     5     6    2
     9     5     7   am
    10     7     8    1
    11     8     9    1
    12     9    10    1
    13    10    18    1
    14    18    19    1
    15    19    20   ar
    16    20    21   ar
    17    21    22   ar
    18    22    23   ar
    19    23    24   ar
    20    10    11    1
    21    11    12    1
    22     4    13    1
    23    13    14    1
    24    14     1    1
    25    12     7    1
    26    24    19   ar
@<TRIPOS>MOLECULE
*****
 24 26 0 0 0
SMALL
GASTEIGER

@<TRIPOS>ATOM
      1 N         142.0719  144.2084  157.1671 N.3     1  UNL1       -0.2711
      2 C         141.1515  145.3928  157.1628 C.3     1  UNL1        0.0939
      3 C         140.4583  145.8086  158.4264 C.3     1  UNL1        0.1123
      4 N         140.6857  145.0400  159.6943 N.am    1  UNL1       -0.2612
      5 C         139.9925  145.4558  160.9579 C.2     1  UNL1        0.3072
      6 O         139.0721  146.6401  160.9536 O.2     1  UNL1       -0.2523
      7 N         140.2198  144.6872  162.2258 N.am    1  UNL1       -0.2640
      8 C         141.1403  143.5028  162.2301 C.3     1  UNL1        0.0950
      9 C         141.3677  142.7342  163.4980 C.3     1  UNL1        0.0219
     10 C         140.6745  143.1500  164.7616 C.3     1  UNL1        0.0078
     11 C         139.7541  144.3344  164.7574 C.3     1  UNL1        0.0219
     12 C         139.5267  145.1030  163.4894 C.3     1  UNL1        0.0950
     13 C         141.6061  143.8557  159.6986 C.3     1  UNL1        0.1123
     14 C         142.2992  143.4399  158.4350 C.3     1  UNL1        0.0939
     15 C         142.4401  144.4780  154.6094 C.3     1  UNL1        0.0173
     16 C         142.7650  143.7927  155.9035 C.3     1  UNL1        0.0577
     17 C         143.7832  142.6916  155.9340 C.3     1  UNL1        0.0173
     18 C         140.9019  142.3814  166.0296 C.3     1  UNL1        0.0265
     19 C         139.9813  141.2566  166.4001 C.ar    1  UNL1       -0.0222
     20 C         139.9308  140.7642  167.8160 C.ar    1  UNL1       -0.0043
     21 C         139.0103  139.6394  168.1866 C.ar    1  UNL1       -0.0003
     22 C         138.1401  139.0069  167.1411 C.ar    1  UNL1       -0.0000
     23 C         138.1906  139.4993  165.7251 C.ar    1  UNL1       -0.0003
     24 C         139.1113  140.6242  165.3546 C.ar    1  UNL1       -0.0043
@<TRIPOS>BOND
     1    15    16    1
     2    16    17    1
     3    16     1    1
     4     1     2    1
     5     2     3    1
     6     3     4    1
     7     4     5   am
     8     5     6    2
     9     5     7   am
    10     7     8    1
    11     8     9    1
    12     9    10    1
    13    10    18    1
    14    18    19    1
    15    19    20   ar
    16    20    21   ar
    17    21    22   ar
    18    22    23   ar
    19    23    24   ar
    20    10    11    1
    21    11    12    1
    22     4    13    1
    23    13    14    1
    24    14     1    1
    25    12     7    1
    26    24    19   ar
@<TRIPOS>MOLECULE
*****
 24 26 0 0 0
SMALL
GASTEIGER

@<TRIPOS>ATOM
      1 N         142.0112  140.7443  166.3132 N.3     1  UNL1       -0.2711
      2 C         141.0116  141.6009  167.0322 C.3     1  UNL1        0.0939
      3 C         140.3592  142.7495  166.3216 C.3     1  UNL1        0.1123
      4 N         140.7063  143.0415  164.8918 N.am    1  UNL1       -0.2612
      5 C         140.0539  144.1901  164.1812 C.2     1  UNL1        0.3072
      6 O         139.0543  145.0467  164.9002 O.2     1  UNL1       -0.2523
      7 N         140.4010  144.4821  162.7514 N.am    1  UNL1       -0.2640
      8 C         141.4006  143.6255  162.0323 C.3     1  UNL1        0.0950
      9 C         141.7478  143.9176  160.6026 C.3     1  UNL1        0.0219
     10 C         141.0953  145.0661  159.8919 C.3     1  UNL1        0.0078
     11 C         140.0957  145.9227  160.6109 C.3     1  UNL1        0.0219
     12 C         139.7485  145.6307  162.0407 C.3     1  UNL1        0.0950
     13 C         141.7059  142.1850  164.1728 C.3     1  UNL1        0.1123
     14 C         142.3583  141.0364  164.8835 C.3     1  UNL1        0.0939
     15 C         143.3933  138.5456  166.2398 C.3     1  UNL1        0.0173
     16 C         142.6637  139.5958  167.0239 C.3     1  UNL1        0.0577
     17 C         142.5864  139.4973  168.5186 C.3     1  UNL1        0.0173
     18 C         141.4425  145.3581  158.4621 C.3     1  UNL1        0.0265
     19 C         140.3657  145.3794  157.4181 C.ar    1  UNL1       -0.0222
     20 C         139.9239  146.6834  156.8227 C.ar    1  UNL1       -0.0043
     21 C         138.8471  146.7046  155.7788 C.ar    1  UNL1       -0.0003
     22 C         138.2120  145.4219  155.3301 C.ar    1  UNL1       -0.0000
     23 C         138.6537  144.1179  155.9255 C.ar    1  UNL1       -0.0003
     24 C         139.7306  144.0967  156.9695 C.ar    1  UNL1       -0.0043
@<TRIPOS>BOND
     1    15    16    1
     2    16    17    1
     3    16     1    1
     4     1     2    1
     5     2     3    1
     6     3     4    1
     7     4     5   am
     8     5     6    2
     9     5     7   am
    10     7     8    1
    11     8     9    1
    12     9    10    1
    13    10    18    1
    14    18    19    1
    15    19    20   ar
    16    20    21   ar
    17    21    22   ar
    18    22    23   ar
    19    23    24   ar
    20    10    11    1
    21    11    12    1
    22     4    13    1
    23    13    14    1
    24    14     1    1
    25    12     7    1
    26    24    19   ar
