@<TRIPOS>MOLECULE
*****
 30 33 0 0 0
SMALL
GASTEIGER

@<TRIPOS>ATOM
      1 C         142.4743  141.9594  166.7167 C.3     1  UNL1        0.0036
      2 C         141.4894  141.2946  167.6321 C.3     1  UNL1        0.0386
      3 C         142.5202  142.1213  168.3419 C.3     1  UNL1        0.0091
      4 C         142.4994  142.2232  169.8383 C.3     1  UNL1        0.0667
      5 C         141.4477  141.4984  170.6248 C.3     1  UNL1        0.2639
      6 F         140.6589  141.0008  171.7996 F       1  UNL1       -0.2043
      7 F         142.2046  142.1523  171.7426 F       1  UNL1       -0.2043
      8 C         140.4168  140.6718  169.9150 C.3     1  UNL1        0.0667
      9 C         140.4377  140.5699  168.4186 C.3     1  UNL1        0.0103
     10 C         139.5581  139.8360  167.4502 C.3     1  UNL1        0.0199
     11 C         140.0661  140.1072  166.0652 C.3     1  UNL1        0.0978
     12 C         141.2597  141.0087  166.1776 C.3     1  UNL1        0.1801
     13 N         139.4829  139.5711  164.7914 N.3     1  UNL1       -0.2697
     14 C         139.8245  138.1834  164.3359 C.3     1  UNL1        0.0722
     15 C         139.2414  137.6473  163.0621 C.3     1  UNL1        0.0187
     16 C         138.3166  138.4989  162.2439 C.3     1  UNL1        0.0183
     17 C         137.9750  139.8866  162.6994 C.3     1  UNL1        0.0670
     18 N         137.0502  140.7382  161.8812 N.3     1  UNL1       -0.3211
     19 C         138.5582  140.4227  163.9732 C.3     1  UNL1        0.0878
     20 H         136.9300  141.6433  162.3358 H       1  UNL1        0.1189
     21 H         136.1447  140.2757  161.7998 H       1  UNL1        0.1189
     22 O         142.0797  141.5323  165.0360 O.3     1  UNL1       -0.4778
     23 C         142.2680  140.6987  163.8033 C.ar    1  UNL1        0.1385
     24 C         143.0693  139.4324  163.8694 C.ar    1  UNL1        0.0376
     25 C         143.2575  138.5988  162.6366 C.ar    1  UNL1        0.0134
     26 C         142.6444  139.0314  161.3378 C.ar    1  UNL1        0.0686
     27 C         141.8430  140.2977  161.2717 C.ar    1  UNL1        0.0134
     28 C         141.6548  141.1313  162.5044 C.ar    1  UNL1        0.0376
     29 C         142.8326  138.1977  160.1051 C.1     1  UNL1        0.1004
     30 N         143.0208  137.3641  158.8724 N.1     1  UNL1       -0.1908
@<TRIPOS>BOND
     1     2     1    1
     2     2     3    1
     3     3     4    1
     4     4     5    1
     5     5     6    1
     6     5     7    1
     7     5     8    1
     8     9     8    1
     9     9    10    1
    10    10    11    1
    11    11    13    1
    12    13    14    1
    13    14    15    1
    14    15    16    1
    15    16    17    1
    16    17    18    1
    17    17    19    1
    18    11    12    1
    19    12    22    1
    20    22    23    1
    21    23    24   ar
    22    24    25   ar
    23    25    26   ar
    24    26    29    1
    25    29    30    3
    26    26    27   ar
    27    27    28   ar
    28     9     2    1
    29    19    13    1
    30    28    23   ar
    31    12     2    1
    32    18    20    1
    33    18    21    1
@<TRIPOS>MOLECULE
*****
 30 33 0 0 0
SMALL
GASTEIGER

@<TRIPOS>ATOM
      1 C         139.1548  139.5950  167.2555 C.3     1  UNL1        0.0036
      2 C         140.3808  140.3980  167.5753 C.3     1  UNL1        0.0386
      3 C         139.4695  140.1830  168.7471 C.3     1  UNL1        0.0091
      4 C         139.8247  140.7538  170.0880 C.3     1  UNL1        0.0667
      5 C         141.0911  141.5396  170.2571 C.3     1  UNL1        0.2639
      6 F         142.1713  142.3483  170.9122 F       1  UNL1       -0.2043
      7 F         140.5550  141.6054  171.6564 F       1  UNL1       -0.2043
      8 C         142.0024  141.7547  169.0852 C.3     1  UNL1        0.0667
      9 C         141.6472  141.1839  167.7443 C.3     1  UNL1        0.0103
     10 C         142.3439  141.2314  166.4168 C.3     1  UNL1        0.0199
     11 C         141.5081  140.4749  165.4273 C.3     1  UNL1        0.0978
     12 C         140.2948  139.9599  166.1433 C.3     1  UNL1        0.1801
     13 N         141.8292  140.2696  163.9765 N.3     1  UNL1       -0.2697
     14 C         141.5031  141.3397  162.9774 C.3     1  UNL1        0.0722
     15 C         141.8241  141.1344  161.5266 C.3     1  UNL1        0.0187
     16 C         142.4713  139.8588  161.0750 C.3     1  UNL1        0.0183
     17 C         142.7975  138.7886  162.0741 C.3     1  UNL1        0.0670
     18 N         143.4447  137.5130  161.6225 N.3     1  UNL1       -0.3211
     19 C         142.4764  138.9940  163.5249 C.3     1  UNL1        0.0878
     20 H         143.5933  136.9037  162.4269 H       1  UNL1        0.1189
     21 H         144.3418  137.7232  161.1849 H       1  UNL1        0.1189
     22 O         139.1896  139.1490  165.5342 O.3     1  UNL1       -0.4778
     23 C         138.8012  139.3667  164.1019 C.ar    1  UNL1        0.1385
     24 C         138.1519  140.6541  163.6881 C.ar    1  UNL1        0.0376
     25 C         137.7636  140.8717  162.2557 C.ar    1  UNL1        0.0134
     26 C         138.0245  139.8021  161.2370 C.ar    1  UNL1        0.0686
     27 C         138.6738  138.5147  161.6507 C.ar    1  UNL1        0.0134
     28 C         139.0622  138.2971  163.0831 C.ar    1  UNL1        0.0376
     29 C         137.6361  140.0198  159.8046 C.1     1  UNL1        0.1004
     30 N         137.2478  140.2374  158.3722 N.1     1  UNL1       -0.1908
@<TRIPOS>BOND
     1     2     1    1
     2     2     3    1
     3     3     4    1
     4     4     5    1
     5     5     6    1
     6     5     7    1
     7     5     8    1
     8     9     8    1
     9     9    10    1
    10    10    11    1
    11    11    13    1
    12    13    14    1
    13    14    15    1
    14    15    16    1
    15    16    17    1
    16    17    18    1
    17    17    19    1
    18    11    12    1
    19    12    22    1
    20    22    23    1
    21    23    24   ar
    22    24    25   ar
    23    25    26   ar
    24    26    29    1
    25    29    30    3
    26    26    27   ar
    27    27    28   ar
    28     9     2    1
    29    19    13    1
    30    28    23   ar
    31    12     2    1
    32    18    20    1
    33    18    21    1
@<TRIPOS>MOLECULE
*****
 30 33 0 0 0
SMALL
GASTEIGER

@<TRIPOS>ATOM
      1 C         142.5968  141.2848  166.8320 C.3     1  UNL1        0.0036
      2 C         141.4297  140.7942  167.6365 C.3     1  UNL1        0.0386
      3 C         142.6200  141.1824  168.4625 C.3     1  UNL1        0.0091
      4 C         142.5678  141.0611  169.9567 C.3     1  UNL1        0.0667
      5 C         141.3252  140.5516  170.6248 C.3     1  UNL1        0.2639
      6 F         140.3824  140.1255  171.7109 F       1  UNL1       -0.2043
      7 F         142.1881  140.7919  171.8280 F       1  UNL1       -0.2043
      8 C         140.1349  140.1633  169.7988 C.3     1  UNL1        0.0667
      9 C         140.1872  140.2846  168.3047 C.3     1  UNL1        0.0103
     10 C         139.1783  139.9806  167.2371 C.3     1  UNL1        0.0199
     11 C         139.7973  140.3022  165.9092 C.3     1  UNL1        0.0978
     12 C         141.1887  140.8050  166.1561 C.3     1  UNL1        0.1801
     13 N         139.1402  140.1480  164.5696 N.3     1  UNL1       -0.2697
     14 C         138.1875  141.1965  164.0764 C.3     1  UNL1        0.0722
     15 C         137.5304  141.0423  162.7369 C.3     1  UNL1        0.0187
     16 C         137.8260  139.8398  161.8904 C.3     1  UNL1        0.0183
     17 C         138.7786  138.7913  162.3836 C.3     1  UNL1        0.0670
     18 N         139.0742  137.5887  161.5372 N.3     1  UNL1       -0.3211
     19 C         139.4357  138.9455  163.7232 C.3     1  UNL1        0.0878
     20 H         139.7370  136.9851  162.0237 H       1  UNL1        0.1189
     21 H         139.4760  137.8885  160.6489 H       1  UNL1        0.1189
     22 O         142.1674  141.2420  165.1067 O.3     1  UNL1       -0.4778
     23 C         141.7202  142.1392  163.9910 C.ar    1  UNL1        0.1385
     24 C         141.2430  143.5291  164.2917 C.ar    1  UNL1        0.0376
     25 C         140.7957  144.4263  163.1759 C.ar    1  UNL1        0.0134
     26 C         140.8256  143.9337  161.7594 C.ar    1  UNL1        0.0686
     27 C         141.3028  142.5437  161.4587 C.ar    1  UNL1        0.0134
     28 C         141.7500  141.6465  162.5745 C.ar    1  UNL1        0.0376
     29 C         140.3783  144.8309  160.6437 C.1     1  UNL1        0.1004
     30 N         139.9310  145.7280  159.5279 N.1     1  UNL1       -0.1908
@<TRIPOS>BOND
     1     2     1    1
     2     2     3    1
     3     3     4    1
     4     4     5    1
     5     5     6    1
     6     5     7    1
     7     5     8    1
     8     9     8    1
     9     9    10    1
    10    10    11    1
    11    11    13    1
    12    13    14    1
    13    14    15    1
    14    15    16    1
    15    16    17    1
    16    17    18    1
    17    17    19    1
    18    11    12    1
    19    12    22    1
    20    22    23    1
    21    23    24   ar
    22    24    25   ar
    23    25    26   ar
    24    26    29    1
    25    29    30    3
    26    26    27   ar
    27    27    28   ar
    28     9     2    1
    29    19    13    1
    30    28    23   ar
    31    12     2    1
    32    18    20    1
    33    18    21    1
@<TRIPOS>MOLECULE
*****
 30 33 0 0 0
SMALL
GASTEIGER

@<TRIPOS>ATOM
      1 C         142.8715  139.6294  167.2149 C.3     1  UNL1        0.0036
      2 C         141.7285  140.5352  167.5658 C.3     1  UNL1        0.0386
      3 C         142.0672  139.5385  168.6342 C.3     1  UNL1        0.0091
      4 C         141.2837  139.5145  169.9130 C.3     1  UNL1        0.0667
      5 C         140.1614  140.4873  170.1234 C.3     1  UNL1        0.2639
      6 F         139.0190  141.1997  170.7846 F       1  UNL1       -0.2043
      7 F         140.1034  139.7379  171.4215 F       1  UNL1       -0.2043
      8 C         139.8227  141.4840  169.0549 C.3     1  UNL1        0.0667
      9 C         140.6063  141.5080  167.7761 C.3     1  UNL1        0.0103
     10 C         140.5038  142.3691  166.5522 C.3     1  UNL1        0.0199
     11 C         141.5627  141.9286  165.5854 C.3     1  UNL1        0.0978
     12 C         142.3196  140.7952  166.2118 C.3     1  UNL1        0.1801
     13 N         141.8195  142.5179  164.2301 N.3     1  UNL1       -0.2697
     14 C         141.0815  141.9959  163.0332 C.3     1  UNL1        0.0722
     15 C         141.3384  142.5853  161.6779 C.3     1  UNL1        0.0187
     16 C         142.3332  143.6966  161.5196 C.3     1  UNL1        0.0183
     17 C         143.0712  144.2186  162.7166 C.3     1  UNL1        0.0670
     18 N         144.0662  145.3300  162.5584 N.3     1  UNL1       -0.3211
     19 C         142.8144  143.6293  164.0719 C.3     1  UNL1        0.0878
     20 H         144.4698  145.5570  163.4672 H       1  UNL1        0.1189
     21 H         143.5987  146.1533  162.1788 H       1  UNL1        0.1189
     22 O         143.4663  140.0521  165.5930 O.3     1  UNL1       -0.4778
     23 C         143.3847  139.6016  164.1647 C.ar    1  UNL1        0.1385
     24 C         144.3079  140.1894  163.1389 C.ar    1  UNL1        0.0376
     25 C         144.2262  139.7388  161.7105 C.ar    1  UNL1        0.0134
     26 C         143.2214  138.7004  161.3078 C.ar    1  UNL1        0.0686
     27 C         142.2982  138.1126  162.3336 C.ar    1  UNL1        0.0134
     28 C         142.3799  138.5631  163.7620 C.ar    1  UNL1        0.0376
     29 C         143.1398  138.2499  159.8794 C.1     1  UNL1        0.1004
     30 N         143.0581  137.7993  158.4511 N.1     1  UNL1       -0.1908
@<TRIPOS>BOND
     1     2     1    1
     2     2     3    1
     3     3     4    1
     4     4     5    1
     5     5     6    1
     6     5     7    1
     7     5     8    1
     8     9     8    1
     9     9    10    1
    10    10    11    1
    11    11    13    1
    12    13    14    1
    13    14    15    1
    14    15    16    1
    15    16    17    1
    16    17    18    1
    17    17    19    1
    18    11    12    1
    19    12    22    1
    20    22    23    1
    21    23    24   ar
    22    24    25   ar
    23    25    26   ar
    24    26    29    1
    25    29    30    3
    26    26    27   ar
    27    27    28   ar
    28     9     2    1
    29    19    13    1
    30    28    23   ar
    31    12     2    1
    32    18    20    1
    33    18    21    1
@<TRIPOS>MOLECULE
*****
 30 33 0 0 0
SMALL
GASTEIGER

@<TRIPOS>ATOM
      1 C         140.4034  142.9533  166.4870 C.3     1  UNL1        0.0036
      2 C         140.2102  141.7027  167.2924 C.3     1  UNL1        0.0386
      3 C         140.4547  142.9296  168.1199 C.3     1  UNL1        0.0091
      4 C         140.4881  142.8305  169.6162 C.3     1  UNL1        0.0667
      5 C         140.2771  141.5046  170.2850 C.3     1  UNL1        0.2639
      6 F         140.1336  140.4814  171.3724 F       1  UNL1       -0.2043
      7 F         140.4717  142.3761  171.4902 F       1  UNL1       -0.2043
      8 C         140.0326  140.2777  169.4575 C.3     1  UNL1        0.0667
      9 C         139.9992  140.3767  167.9611 C.3     1  UNL1        0.0103
     10 C         139.7813  139.3477  166.8917 C.3     1  UNL1        0.0199
     11 C         139.8578  140.0376  165.5620 C.3     1  UNL1        0.0978
     12 C         140.1229  141.4931  165.8096 C.3     1  UNL1        0.1801
     13 N         139.6973  139.3864  164.2203 N.3     1  UNL1       -0.2697
     14 C         138.3864  139.4731  163.4965 C.3     1  UNL1        0.0722
     15 C         138.2259  138.8219  162.1548 C.3     1  UNL1        0.0187
     16 C         139.3764  138.0841  161.5369 C.3     1  UNL1        0.0183
     17 C         140.6874  137.9974  162.2606 C.3     1  UNL1        0.0670
     18 N         141.8380  137.2596  161.6427 N.3     1  UNL1       -0.3211
     19 C         140.8478  138.6486  163.6023 C.3     1  UNL1        0.0878
     20 H         142.6434  137.3013  162.2671 H       1  UNL1        0.1189
     21 H         142.0776  137.6900  160.7495 H       1  UNL1        0.1189
     22 O         140.2740  142.5530  164.7590 O.3     1  UNL1       -0.4778
     23 C         141.0560  142.2663  163.5115 C.ar    1  UNL1        0.1385
     24 C         142.5285  141.9933  163.5954 C.ar    1  UNL1        0.0376
     25 C         143.3105  141.7067  162.3479 C.ar    1  UNL1        0.0134
     26 C         142.6199  141.6930  161.0164 C.ar    1  UNL1        0.0686
     27 C         141.1473  141.9660  160.9324 C.ar    1  UNL1        0.0134
     28 C         140.3654  142.2527  162.1800 C.ar    1  UNL1        0.0376
     29 C         143.4018  141.4064  159.7688 C.1     1  UNL1        0.1004
     30 N         144.1838  141.1198  158.5213 N.1     1  UNL1       -0.1908
@<TRIPOS>BOND
     1     2     1    1
     2     2     3    1
     3     3     4    1
     4     4     5    1
     5     5     6    1
     6     5     7    1
     7     5     8    1
     8     9     8    1
     9     9    10    1
    10    10    11    1
    11    11    13    1
    12    13    14    1
    13    14    15    1
    14    15    16    1
    15    16    17    1
    16    17    18    1
    17    17    19    1
    18    11    12    1
    19    12    22    1
    20    22    23    1
    21    23    24   ar
    22    24    25   ar
    23    25    26   ar
    24    26    29    1
    25    29    30    3
    26    26    27   ar
    27    27    28   ar
    28     9     2    1
    29    19    13    1
    30    28    23   ar
    31    12     2    1
    32    18    20    1
    33    18    21    1
@<TRIPOS>MOLECULE
*****
 30 33 0 0 0
SMALL
GASTEIGER

@<TRIPOS>ATOM
      1 C         139.7580  140.5700  166.6225 C.3     1  UNL1        0.0036
      2 C         140.7983  141.0443  167.5935 C.3     1  UNL1        0.0386
      3 C         139.6862  140.2608  168.2253 C.3     1  UNL1        0.0091
      4 C         139.6875  140.0165  169.7052 C.3     1  UNL1        0.0667
      5 C         140.8010  140.5558  170.5534 C.3     1  UNL1        0.2639
      6 F         141.6279  140.8595  171.7674 F       1  UNL1       -0.2043
      7 F         139.9760  139.8777  171.6068 F       1  UNL1       -0.2043
      8 C         141.9131  141.3393  169.9216 C.3     1  UNL1        0.0667
      9 C         141.9117  141.5836  168.4417 C.3     1  UNL1        0.0103
     10 C         142.8657  142.3146  167.5442 C.3     1  UNL1        0.0199
     11 C         142.3419  142.2272  166.1413 C.3     1  UNL1        0.0978
     12 C         141.0642  141.4421  166.1718 C.3     1  UNL1        0.1801
     13 N         142.9833  142.8206  164.9221 N.3     1  UNL1       -0.2697
     14 C         142.4494  144.0953  164.3390 C.3     1  UNL1        0.0722
     15 C         143.0907  144.6887  163.1198 C.3     1  UNL1        0.0187
     16 C         144.2659  144.0075  162.4836 C.3     1  UNL1        0.0183
     17 C         144.7998  142.7328  163.0667 C.3     1  UNL1        0.0670
     18 N         145.9750  142.0514  162.4306 N.3     1  UNL1       -0.3211
     19 C         144.1585  142.1393  164.2860 C.3     1  UNL1        0.0878
     20 H         146.2016  141.2055  162.9535 H       1  UNL1        0.1189
     21 H         146.7777  142.6808  162.4376 H       1  UNL1        0.1189
     22 O         140.2034  141.1125  164.9884 O.3     1  UNL1       -0.4778
     23 C         140.8328  140.6416  163.7110 C.ar    1  UNL1        0.1385
     24 C         140.6669  141.4422  162.4534 C.ar    1  UNL1        0.0376
     25 C         141.2964  140.9711  161.1760 C.ar    1  UNL1        0.0134
     26 C         142.0918  139.6996  161.1560 C.ar    1  UNL1        0.0686
     27 C         142.2578  138.8990  162.4136 C.ar    1  UNL1        0.0134
     28 C         141.6283  139.3700  163.6911 C.ar    1  UNL1        0.0376
     29 C         142.7213  139.2286  159.8786 C.1     1  UNL1        0.1004
     30 N         143.3508  138.7576  158.6012 N.1     1  UNL1       -0.1908
@<TRIPOS>BOND
     1     2     1    1
     2     2     3    1
     3     3     4    1
     4     4     5    1
     5     5     6    1
     6     5     7    1
     7     5     8    1
     8     9     8    1
     9     9    10    1
    10    10    11    1
    11    11    13    1
    12    13    14    1
    13    14    15    1
    14    15    16    1
    15    16    17    1
    16    17    18    1
    17    17    19    1
    18    11    12    1
    19    12    22    1
    20    22    23    1
    21    23    24   ar
    22    24    25   ar
    23    25    26   ar
    24    26    29    1
    25    29    30    3
    26    26    27   ar
    27    27    28   ar
    28     9     2    1
    29    19    13    1
    30    28    23   ar
    31    12     2    1
    32    18    20    1
    33    18    21    1
@<TRIPOS>MOLECULE
*****
 30 33 0 0 0
SMALL
GASTEIGER

@<TRIPOS>ATOM
      1 C         142.1636  140.0025  166.1928 C.3     1  UNL1        0.0036
      2 C         141.6955  140.9256  167.2785 C.3     1  UNL1        0.0386
      3 C         142.5351  139.7834  167.7687 C.3     1  UNL1        0.0091
      4 C         142.8349  139.6470  169.2321 C.3     1  UNL1        0.0667
      5 C         142.2950  140.6528  170.2052 C.3     1  UNL1        0.2639
      6 F         142.0128  141.3454  171.5054 F       1  UNL1       -0.2043
      7 F         143.0366  139.7511  171.1470 F       1  UNL1       -0.2043
      8 C         141.4554  141.7950  169.7150 C.3     1  UNL1        0.0667
      9 C         141.1556  141.9314  168.2516 C.3     1  UNL1        0.0103
     10 C         140.3631  142.9443  167.4795 C.3     1  UNL1        0.0199
     11 C         140.4132  142.5645  166.0293 C.3     1  UNL1        0.0978
     12 C         141.2366  141.3169  165.9050 C.3     1  UNL1        0.1801
     13 N         139.7553  143.3027  164.9013 N.3     1  UNL1       -0.2697
     14 C         138.4045  142.8733  164.4107 C.3     1  UNL1        0.0722
     15 C         137.7467  143.6115  163.2828 C.3     1  UNL1        0.0187
     16 C         138.4396  144.7792  162.6454 C.3     1  UNL1        0.0183
     17 C         139.7905  145.2086  163.1361 C.3     1  UNL1        0.0670
     18 N         140.4835  146.3764  162.4987 N.3     1  UNL1       -0.3211
     19 C         140.4483  144.4704  164.2640 C.3     1  UNL1        0.0878
     20 H         141.3841  146.5268  162.9534 H       1  UNL1        0.1189
     21 H         139.9070  147.2115  162.6017 H       1  UNL1        0.1189
     22 O         141.5468  140.5885  164.6310 O.3     1  UNL1       -0.4778
     23 C         141.7780  141.3578  163.3643 C.ar    1  UNL1        0.1385
     24 C         140.8000  141.2498  162.2320 C.ar    1  UNL1        0.0376
     25 C         141.0313  142.0192  160.9654 C.ar    1  UNL1        0.0134
     26 C         142.2404  142.8966  160.8308 C.ar    1  UNL1        0.0686
     27 C         143.2184  143.0047  161.9631 C.ar    1  UNL1        0.0134
     28 C         142.9872  142.2353  163.2298 C.ar    1  UNL1        0.0376
     29 C         142.4717  143.6660  159.5641 C.1     1  UNL1        0.1004
     30 N         142.7029  144.4354  158.2975 N.1     1  UNL1       -0.1908
@<TRIPOS>BOND
     1     2     1    1
     2     2     3    1
     3     3     4    1
     4     4     5    1
     5     5     6    1
     6     5     7    1
     7     5     8    1
     8     9     8    1
     9     9    10    1
    10    10    11    1
    11    11    13    1
    12    13    14    1
    13    14    15    1
    14    15    16    1
    15    16    17    1
    16    17    18    1
    17    17    19    1
    18    11    12    1
    19    12    22    1
    20    22    23    1
    21    23    24   ar
    22    24    25   ar
    23    25    26   ar
    24    26    29    1
    25    29    30    3
    26    26    27   ar
    27    27    28   ar
    28     9     2    1
    29    19    13    1
    30    28    23   ar
    31    12     2    1
    32    18    20    1
    33    18    21    1
@<TRIPOS>MOLECULE
*****
 30 33 0 0 0
SMALL
GASTEIGER

@<TRIPOS>ATOM
      1 C         142.7525  139.1925  167.1245 C.3     1  UNL1        0.0036
      2 C         141.6626  140.1334  167.5451 C.3     1  UNL1        0.0386
      3 C         142.6454  139.8132  168.6321 C.3     1  UNL1        0.0091
      4 C         142.4825  140.4216  169.9935 C.3     1  UNL1        0.0667
      5 C         141.3369  141.3501  170.2678 C.3     1  UNL1        0.2639
      6 F         140.4223  142.2796  171.0092 F       1  UNL1       -0.2043
      7 F         142.0021  141.3527  171.6123 F       1  UNL1       -0.2043
      8 C         140.3541  141.6703  169.1809 C.3     1  UNL1        0.0667
      9 C         140.5169  141.0619  167.8195 C.3     1  UNL1        0.0103
     10 C         139.7127  141.1906  166.5599 C.3     1  UNL1        0.0199
     11 C         140.3612  140.3416  165.5070 C.3     1  UNL1        0.0978
     12 C         141.5663  139.6882  166.1160 C.3     1  UNL1        0.1801
     13 N         139.8878  140.1753  164.0935 N.3     1  UNL1       -0.2697
     14 C         140.2148  141.2174  163.0654 C.3     1  UNL1        0.0722
     15 C         139.7414  141.0510  161.6518 C.3     1  UNL1        0.0187
     16 C         138.9410  139.8425  161.2663 C.3     1  UNL1        0.0183
     17 C         138.6139  138.8003  162.2944 C.3     1  UNL1        0.0670
     18 N         137.8134  137.5917  161.9088 N.3     1  UNL1       -0.3211
     19 C         139.0874  138.9667  163.7079 C.3     1  UNL1        0.0878
     20 H         137.6862  136.9936  162.7252 H       1  UNL1        0.1189
     21 H         138.3077  137.0742  161.1820 H       1  UNL1        0.1189
     22 O         142.5096  138.7537  165.4182 O.3     1  UNL1       -0.4778
     23 C         142.8531  138.9741  163.9749 C.ar    1  UNL1        0.1385
     24 C         142.4134  137.9821  162.9392 C.ar    1  UNL1        0.0376
     25 C         142.7569  138.2026  161.4958 C.ar    1  UNL1        0.0134
     26 C         143.5401  139.4151  161.0880 C.ar    1  UNL1        0.0686
     27 C         143.9798  140.4072  162.1236 C.ar    1  UNL1        0.0134
     28 C         143.6363  140.1867  163.5670 C.ar    1  UNL1        0.0376
     29 C         143.8836  139.6356  159.6446 C.1     1  UNL1        0.1004
     30 N         144.2271  139.8562  158.2012 N.1     1  UNL1       -0.1908
@<TRIPOS>BOND
     1     2     1    1
     2     2     3    1
     3     3     4    1
     4     4     5    1
     5     5     6    1
     6     5     7    1
     7     5     8    1
     8     9     8    1
     9     9    10    1
    10    10    11    1
    11    11    13    1
    12    13    14    1
    13    14    15    1
    14    15    16    1
    15    16    17    1
    16    17    18    1
    17    17    19    1
    18    11    12    1
    19    12    22    1
    20    22    23    1
    21    23    24   ar
    22    24    25   ar
    23    25    26   ar
    24    26    29    1
    25    29    30    3
    26    26    27   ar
    27    27    28   ar
    28     9     2    1
    29    19    13    1
    30    28    23   ar
    31    12     2    1
    32    18    20    1
    33    18    21    1
@<TRIPOS>MOLECULE
*****
 30 33 0 0 0
SMALL
GASTEIGER

@<TRIPOS>ATOM
      1 C         142.4086  140.2820  166.2283 C.3     1  UNL1        0.0036
      2 C         141.7314  141.0796  167.3031 C.3     1  UNL1        0.0386
      3 C         142.6501  140.0133  167.8217 C.3     1  UNL1        0.0091
      4 C         142.8217  139.8250  169.2999 C.3     1  UNL1        0.0667
      5 C         142.0747  140.7032  170.2595 C.3     1  UNL1        0.2639
      6 F         141.5881  141.2805  171.5556 F       1  UNL1       -0.2043
      7 F         142.8244  139.8373  171.2282 F       1  UNL1       -0.2043
      8 C         141.1561  141.7695  169.7410 C.3     1  UNL1        0.0667
      9 C         140.9844  141.9578  168.2628 C.3     1  UNL1        0.0103
     10 C         140.1549  142.9180  167.4629 C.3     1  UNL1        0.0199
     11 C         140.3892  142.6334  166.0089 C.3     1  UNL1        0.0978
     12 C         141.3636  141.4972  165.9102 C.3     1  UNL1        0.1801
     13 N         139.7598  143.3577  164.8560 N.3     1  UNL1       -0.2697
     14 C         138.4140  142.9327  164.3479 C.3     1  UNL1        0.0722
     15 C         137.7845  143.6570  163.1951 C.3     1  UNL1        0.0187
     16 C         138.5008  144.8064  162.5503 C.3     1  UNL1        0.0183
     17 C         139.8465  145.2315  163.0585 C.3     1  UNL1        0.0670
     18 N         140.5629  146.3810  162.4137 N.3     1  UNL1       -0.3211
     19 C         140.4760  144.5072  164.2113 C.3     1  UNL1        0.0878
     20 H         141.4564  146.5308  162.8824 H       1  UNL1        0.1189
     21 H         139.9929  147.2233  162.4912 H       1  UNL1        0.1189
     22 O         141.8795  140.8859  164.6413 O.3     1  UNL1       -0.4778
     23 C         140.9741  140.7467  163.4536 C.ar    1  UNL1        0.1385
     24 C         139.8080  139.8046  163.5057 C.ar    1  UNL1        0.0376
     25 C         138.9026  139.6654  162.3179 C.ar    1  UNL1        0.0134
     26 C         139.1632  140.4683  161.0780 C.ar    1  UNL1        0.0686
     27 C         140.3293  141.4104  161.0258 C.ar    1  UNL1        0.0134
     28 C         141.2347  141.5496  162.2136 C.ar    1  UNL1        0.0376
     29 C         138.2578  140.3291  159.8902 C.1     1  UNL1        0.1004
     30 N         137.3525  140.1899  158.7024 N.1     1  UNL1       -0.1908
@<TRIPOS>BOND
     1     2     1    1
     2     2     3    1
     3     3     4    1
     4     4     5    1
     5     5     6    1
     6     5     7    1
     7     5     8    1
     8     9     8    1
     9     9    10    1
    10    10    11    1
    11    11    13    1
    12    13    14    1
    13    14    15    1
    14    15    16    1
    15    16    17    1
    16    17    18    1
    17    17    19    1
    18    11    12    1
    19    12    22    1
    20    22    23    1
    21    23    24   ar
    22    24    25   ar
    23    25    26   ar
    24    26    29    1
    25    29    30    3
    26    26    27   ar
    27    27    28   ar
    28     9     2    1
    29    19    13    1
    30    28    23   ar
    31    12     2    1
    32    18    20    1
    33    18    21    1
