@<TRIPOS>MOLECULE
*****
 35 39 0 0 0
SMALL
GASTEIGER

@<TRIPOS>ATOM
      1 O         138.8867  143.6268  159.9927 O.2     1  UNL1       -0.2489
      2 C         140.2702  144.1610  160.2175 C.2     1  UNL1        0.3237
      3 N         140.9620  144.9317  159.1323 N.am    1  UNL1       -0.2657
      4 N         140.9620  143.9247  161.5273 N.ar    1  UNL1       -0.2609
      5 C         142.3379  144.3953  161.8953 C.ar    1  UNL1        0.0842
      6 C         142.6254  143.9378  163.2946 C.ar    1  UNL1        0.0207
      7 C         141.4273  143.1844  163.7913 C.ar    1  UNL1        0.0208
      8 C         141.1396  142.5046  165.0972 C.ar    1  UNL1        0.0390
      9 C         139.8238  141.8168  165.3108 C.ar    1  UNL1        0.1473
     10 C         138.7957  141.8088  164.2185 C.ar    1  UNL1        0.0390
     11 C         139.0834  142.4885  162.9127 C.ar    1  UNL1        0.0208
     12 C         140.3992  143.1763  162.6991 C.ar    1  UNL1        0.0683
     13 H         141.8700  145.2823  159.2798 H       1  UNL1        0.1566
     14 C         140.2704  145.1680  157.8225 C.ar    1  UNL1        0.0517
     15 C         139.9394  144.0092  156.9293 C.ar    1  UNL1        0.0147
     16 C         139.2478  144.2455  155.6194 C.ar    1  UNL1        0.0012
     17 C         138.8871  145.6406  155.2027 C.ar    1  UNL1        0.0039
     18 C         139.2180  146.7994  156.0958 C.ar    1  UNL1        0.0727
     19 C         139.9096  146.5631  157.4058 C.ar    1  UNL1        0.0186
     20 C         138.8572  148.1944  155.6791 C.3     1  UNL1        0.4186
     21 F         138.4965  149.5895  155.2623 F       1  UNL1       -0.1659
     22 F         138.4585  148.5127  157.0896 F       1  UNL1       -0.1659
     23 F         139.2559  147.8761  154.2684 F       1  UNL1       -0.1659
     24 O         139.5361  141.1371  166.6166 O.3     1  UNL1       -0.4363
     25 C         140.6660  140.6328  167.4645 C.ar    1  UNL1        0.2282
     26 N         141.6286  139.6253  166.9094 N.ar    1  UNL1       -0.1893
     27 C         142.7585  139.1210  167.7573 C.ar    1  UNL1        0.2012
     28 N         142.9257  139.6241  169.1604 N.ar    1  UNL1       -0.2271
     29 C         141.9631  140.6316  169.7157 C.ar    1  UNL1        0.0772
     30 C         140.8332  141.1359  168.8677 C.ar    1  UNL1        0.0477
     31 C         139.8705  142.1434  169.4229 C.3     1  UNL1        0.0494
     32 C         140.0378  142.6465  170.8261 C.3     1  UNL1        0.0738
     33 N         141.1676  142.1422  171.6740 N.3     1  UNL1       -0.2922
     34 C         142.1303  141.1347  171.1188 C.3     1  UNL1        0.1150
     35 H         140.7485  141.7227  172.5039 H       1  UNL1        0.1236
@<TRIPOS>BOND
     1     1     2    2
     2     2     3   am
     3     3    14    1
     4    14    15   ar
     5    15    16   ar
     6    16    17   ar
     7    17    18   ar
     8    18    20    1
     9    20    21    1
    10    20    22    1
    11    20    23    1
    12    18    19   ar
    13     2     4   am
    14     4     5   ar
    15     5     6   ar
    16     6     7   ar
    17     7     8   ar
    18     8     9   ar
    19     9    24    1
    20    24    25    1
    21    25    26   ar
    22    26    27   ar
    23    27    28   ar
    24    28    29   ar
    25    29    30   ar
    26    30    31    1
    27    31    32    1
    28    32    33    1
    29    33    34    1
    30     9    10   ar
    31    10    11   ar
    32    11    12   ar
    33    19    14   ar
    34    12     4   ar
    35    12     7   ar
    36    30    25   ar
    37    34    29    1
    38     3    13    1
    39    33    35    1
@<TRIPOS>MOLECULE
*****
 35 39 0 0 0
SMALL
GASTEIGER

@<TRIPOS>ATOM
      1 O         142.9760  140.1031  164.7941 O.2     1  UNL1       -0.2489
      2 C         141.5574  139.6252  164.6967 C.2     1  UNL1        0.3237
      3 N         140.6630  139.6813  165.8995 N.am    1  UNL1       -0.2657
      4 N         141.0333  139.0913  163.3966 N.ar    1  UNL1       -0.2609
      5 C         139.6450  138.5805  163.1488 C.ar    1  UNL1        0.0842
      6 C         139.5592  138.1480  161.7151 C.ar    1  UNL1        0.0207
      7 C         140.8946  138.3915  161.0769 C.ar    1  UNL1        0.0208
      8 C         141.3987  138.1576  159.6835 C.ar    1  UNL1        0.0390
      9 C         142.8139  138.5068  159.3295 C.ar    1  UNL1        0.1473
     10 C         143.7250  139.0899  160.3688 C.ar    1  UNL1        0.0390
     11 C         143.2208  139.3237  161.7620 C.ar    1  UNL1        0.0208
     12 C         141.8057  138.9745  162.1161 C.ar    1  UNL1        0.0683
     13 H         139.7320  139.3677  165.8357 H       1  UNL1        0.1566
     14 C         141.1870  140.2152  167.1996 C.ar    1  UNL1        0.0517
     15 C         142.1602  139.4062  168.0050 C.ar    1  UNL1        0.0147
     16 C         142.6842  139.9400  169.3051 C.ar    1  UNL1        0.0012
     17 C         142.2351  141.2829  169.8000 C.ar    1  UNL1        0.0039
     18 C         141.2620  142.0920  168.9948 C.ar    1  UNL1        0.0727
     19 C         140.7379  141.5581  167.6946 C.ar    1  UNL1        0.0186
     20 C         140.8128  143.4348  169.4897 C.3     1  UNL1        0.4186
     21 F         140.3637  144.7778  169.9846 F       1  UNL1       -0.1659
     22 F         141.5959  143.2312  170.7528 F       1  UNL1       -0.1659
     23 F         140.0298  143.6384  168.2265 F       1  UNL1       -0.1659
     24 O         143.3180  138.2730  157.9363 O.3     1  UNL1       -0.4363
     25 C         142.3987  137.7170  156.8895 C.ar    1  UNL1        0.2282
     26 N         141.5099  138.6372  156.1064 N.ar    1  UNL1       -0.1893
     27 C         140.5906  138.0812  155.0597 C.ar    1  UNL1        0.2012
     28 N         140.5601  136.6049  154.7959 N.ar    1  UNL1       -0.2271
     29 C         141.4489  135.6846  155.5790 C.ar    1  UNL1        0.0772
     30 C         142.3682  136.2406  156.6258 C.ar    1  UNL1        0.0477
     31 C         143.2570  135.3204  157.4088 C.3     1  UNL1        0.0494
     32 C         143.2264  133.8441  157.1451 C.3     1  UNL1        0.0738
     33 N         142.3072  133.2880  156.0983 N.3     1  UNL1       -0.2922
     34 C         141.4184  134.2083  155.3153 C.3     1  UNL1        0.1150
     35 H         141.6974  132.6185  156.5676 H       1  UNL1        0.1236
@<TRIPOS>BOND
     1     1     2    2
     2     2     3   am
     3     3    14    1
     4    14    15   ar
     5    15    16   ar
     6    16    17   ar
     7    17    18   ar
     8    18    20    1
     9    20    21    1
    10    20    22    1
    11    20    23    1
    12    18    19   ar
    13     2     4   am
    14     4     5   ar
    15     5     6   ar
    16     6     7   ar
    17     7     8   ar
    18     8     9   ar
    19     9    24    1
    20    24    25    1
    21    25    26   ar
    22    26    27   ar
    23    27    28   ar
    24    28    29   ar
    25    29    30   ar
    26    30    31    1
    27    31    32    1
    28    32    33    1
    29    33    34    1
    30     9    10   ar
    31    10    11   ar
    32    11    12   ar
    33    19    14   ar
    34    12     4   ar
    35    12     7   ar
    36    30    25   ar
    37    34    29    1
    38     3    13    1
    39    33    35    1
@<TRIPOS>MOLECULE
*****
 35 39 0 0 0
SMALL
GASTEIGER

@<TRIPOS>ATOM
      1 O         141.3374  139.0177  164.0395 O.2     1  UNL1       -0.2489
      2 C         140.5886  140.1568  163.4136 C.2     1  UNL1        0.3237
      3 N         139.7850  141.0879  164.2722 N.am    1  UNL1       -0.2657
      4 N         140.6434  140.3648  161.9291 N.ar    1  UNL1       -0.2609
      5 C         139.9505  141.4540  161.1652 C.ar    1  UNL1        0.0842
      6 C         140.2797  141.2824  159.7118 C.ar    1  UNL1        0.0207
      7 C         141.1759  140.0872  159.5776 C.ar    1  UNL1        0.0208
      8 C         141.8164  139.4420  158.3844 C.ar    1  UNL1        0.0390
      9 C         142.6817  138.2296  158.5616 C.ar    1  UNL1        0.1473
     10 C         142.9066  137.6625  159.9320 C.ar    1  UNL1        0.0390
     11 C         142.2661  138.3077  161.1251 C.ar    1  UNL1        0.0208
     12 C         141.4008  139.5201  160.9478 C.ar    1  UNL1        0.0683
     13 H         139.2935  141.8355  163.8614 H       1  UNL1        0.1566
     14 C         139.7301  140.8800  165.7566 C.ar    1  UNL1        0.0517
     15 C         138.9912  139.7035  166.3224 C.ar    1  UNL1        0.0147
     16 C         138.9363  139.4955  167.8069 C.ar    1  UNL1        0.0012
     17 C         139.6203  140.4640  168.7257 C.ar    1  UNL1        0.0039
     18 C         140.3593  141.6404  168.1600 C.ar    1  UNL1        0.0727
     19 C         140.4142  141.8484  166.6755 C.ar    1  UNL1        0.0186
     20 C         141.0433  142.6088  169.0788 C.3     1  UNL1        0.4186
     21 F         141.7274  143.5773  169.9977 F       1  UNL1       -0.1659
     22 F         140.1847  143.7185  168.5484 F       1  UNL1       -0.1659
     23 F         141.9019  141.4990  169.6093 F       1  UNL1       -0.1659
     24 O         143.3222  137.5844  157.3686 O.3     1  UNL1       -0.4363
     25 C         142.4917  136.7740  156.4180 C.ar    1  UNL1        0.2282
     26 N         141.6202  137.4619  155.4095 N.ar    1  UNL1       -0.1893
     27 C         140.7897  136.6516  154.4589 C.ar    1  UNL1        0.2012
     28 N         140.8307  135.1533  154.5169 N.ar    1  UNL1       -0.2271
     29 C         141.7022  134.4653  155.5255 C.ar    1  UNL1        0.0772
     30 C         142.5327  135.2757  156.4761 C.ar    1  UNL1        0.0477
     31 C         143.4042  134.5878  157.4846 C.3     1  UNL1        0.0494
     32 C         143.4452  133.0895  157.5427 C.3     1  UNL1        0.0738
     33 N         142.6147  132.2791  156.5921 N.3     1  UNL1       -0.2922
     34 C         141.7432  132.9670  155.5835 C.3     1  UNL1        0.1150
     35 H         142.0019  131.6948  157.1609 H       1  UNL1        0.1236
@<TRIPOS>BOND
     1     1     2    2
     2     2     3   am
     3     3    14    1
     4    14    15   ar
     5    15    16   ar
     6    16    17   ar
     7    17    18   ar
     8    18    20    1
     9    20    21    1
    10    20    22    1
    11    20    23    1
    12    18    19   ar
    13     2     4   am
    14     4     5   ar
    15     5     6   ar
    16     6     7   ar
    17     7     8   ar
    18     8     9   ar
    19     9    24    1
    20    24    25    1
    21    25    26   ar
    22    26    27   ar
    23    27    28   ar
    24    28    29   ar
    25    29    30   ar
    26    30    31    1
    27    31    32    1
    28    32    33    1
    29    33    34    1
    30     9    10   ar
    31    10    11   ar
    32    11    12   ar
    33    19    14   ar
    34    12     4   ar
    35    12     7   ar
    36    30    25   ar
    37    34    29    1
    38     3    13    1
    39    33    35    1
@<TRIPOS>MOLECULE
*****
 35 39 0 0 0
SMALL
GASTEIGER

@<TRIPOS>ATOM
      1 O         145.2302  140.7017  155.9657 O.2     1  UNL1       -0.2489
      2 C         145.4687  141.7441  157.0177 C.2     1  UNL1        0.3237
      3 N         146.5005  142.8101  156.7967 N.am    1  UNL1       -0.2657
      4 N         144.6754  141.7204  158.2905 N.ar    1  UNL1       -0.2609
      5 C         144.8024  142.6913  159.4268 C.ar    1  UNL1        0.0842
      6 C         143.8213  142.2926  160.4891 C.ar    1  UNL1        0.0207
      7 C         143.0879  141.0753  160.0093 C.ar    1  UNL1        0.0208
      8 C         142.0076  140.2431  160.6342 C.ar    1  UNL1        0.0390
      9 C         141.4551  139.0573  159.9003 C.ar    1  UNL1        0.1473
     10 C         141.9830  138.7037  158.5414 C.ar    1  UNL1        0.0390
     11 C         143.0633  139.5358  157.9166 C.ar    1  UNL1        0.0208
     12 C         143.6157  140.7216  158.6505 C.ar    1  UNL1        0.0683
     13 H         146.6570  143.4943  157.4872 H       1  UNL1        0.1566
     14 C         147.2938  142.8339  155.5240 C.ar    1  UNL1        0.0517
     15 C         146.8562  143.7045  154.3835 C.ar    1  UNL1        0.0147
     16 C         147.6495  143.7283  153.1107 C.ar    1  UNL1        0.0012
     17 C         148.8804  142.8815  152.9782 C.ar    1  UNL1        0.0039
     18 C         149.3181  142.0108  154.1186 C.ar    1  UNL1        0.0727
     19 C         148.5248  141.9870  155.3915 C.ar    1  UNL1        0.0186
     20 C         150.5491  141.1640  153.9861 C.3     1  UNL1        0.4186
     21 F         151.7801  140.3170  153.8536 F       1  UNL1       -0.1659
     22 F         151.0635  141.7084  155.2857 F       1  UNL1       -0.1659
     23 F         150.0346  140.6196  152.6864 F       1  UNL1       -0.1659
     24 O         140.3748  138.2252  160.5251 O.3     1  UNL1       -0.4363
     25 C         140.2617  138.1414  162.0185 C.ar    1  UNL1        0.2282
     26 N         141.0803  137.1397  162.7776 N.ar    1  UNL1       -0.1893
     27 C         140.9672  137.0560  164.2710 C.ar    1  UNL1        0.2012
     28 N         140.0355  137.9740  165.0052 N.ar    1  UNL1       -0.2271
     29 C         139.2168  138.9758  164.2461 C.ar    1  UNL1        0.0772
     30 C         139.3300  139.0595  162.7527 C.ar    1  UNL1        0.0477
     31 C         138.5114  140.0613  161.9935 C.3     1  UNL1        0.0494
     32 C         137.5797  140.9793  162.7278 C.3     1  UNL1        0.0738
     33 N         137.4666  140.8956  164.2211 N.3     1  UNL1       -0.2922
     34 C         138.2851  139.8938  164.9803 C.3     1  UNL1        0.1150
     35 H         136.4885  140.6968  164.4317 H       1  UNL1        0.1236
@<TRIPOS>BOND
     1     1     2    2
     2     2     3   am
     3     3    14    1
     4    14    15   ar
     5    15    16   ar
     6    16    17   ar
     7    17    18   ar
     8    18    20    1
     9    20    21    1
    10    20    22    1
    11    20    23    1
    12    18    19   ar
    13     2     4   am
    14     4     5   ar
    15     5     6   ar
    16     6     7   ar
    17     7     8   ar
    18     8     9   ar
    19     9    24    1
    20    24    25    1
    21    25    26   ar
    22    26    27   ar
    23    27    28   ar
    24    28    29   ar
    25    29    30   ar
    26    30    31    1
    27    31    32    1
    28    32    33    1
    29    33    34    1
    30     9    10   ar
    31    10    11   ar
    32    11    12   ar
    33    19    14   ar
    34    12     4   ar
    35    12     7   ar
    36    30    25   ar
    37    34    29    1
    38     3    13    1
    39    33    35    1
@<TRIPOS>MOLECULE
*****
 35 39 0 0 0
SMALL
GASTEIGER

@<TRIPOS>ATOM
      1 O         141.1698  138.7320  163.7307 O.2     1  UNL1       -0.2489
      2 C         139.9627  139.3114  163.0544 C.2     1  UNL1        0.3237
      3 N         138.8707  139.9335  163.8732 N.am    1  UNL1       -0.2657
      4 N         139.8477  139.2687  161.5595 N.ar    1  UNL1       -0.2609
      5 C         138.7062  139.8048  160.7473 C.ar    1  UNL1        0.0842
      6 C         139.0070  139.5498  159.3001 C.ar    1  UNL1        0.0207
      7 C         140.3344  138.8561  159.2178 C.ar    1  UNL1        0.0208
      8 C         141.1371  138.3601  158.0517 C.ar    1  UNL1        0.0390
      9 C         142.4594  137.6904  158.2821 C.ar    1  UNL1        0.1473
     10 C         142.9790  137.5167  159.6785 C.ar    1  UNL1        0.0390
     11 C         142.1763  138.0127  160.8445 C.ar    1  UNL1        0.0208
     12 C         140.8540  138.6823  160.6142 C.ar    1  UNL1        0.0683
     13 H         138.0784  140.3138  163.4293 H       1  UNL1        0.1566
     14 C         138.9856  139.9763  165.3681 C.ar    1  UNL1        0.0517
     15 C         138.1403  139.0685  166.2116 C.ar    1  UNL1        0.0147
     16 C         138.2552  139.1112  167.7066 C.ar    1  UNL1        0.0012
     17 C         139.2154  140.0617  168.3582 C.ar    1  UNL1        0.0039
     18 C         140.0608  140.9695  167.5147 C.ar    1  UNL1        0.0727
     19 C         139.9458  140.9267  166.0197 C.ar    1  UNL1        0.0186
     20 C         141.0210  141.9199  168.1663 C.3     1  UNL1        0.4186
     21 F         141.9813  142.8704  168.8179 F       1  UNL1       -0.1659
     22 F         140.2734  143.0792  167.5771 F       1  UNL1       -0.1659
     23 F         141.7686  140.7606  168.7555 F       1  UNL1       -0.1659
     24 O         143.2622  137.1945  157.1161 O.3     1  UNL1       -0.4363
     25 C         143.1239  135.7719  156.6611 C.ar    1  UNL1        0.2282
     26 N         143.4438  134.6489  157.6026 N.ar    1  UNL1       -0.1893
     27 C         143.3055  133.2263  157.1476 C.ar    1  UNL1        0.2012
     28 N         142.8472  132.9266  155.7512 N.ar    1  UNL1       -0.2271
     29 C         142.5272  134.0497  154.8096 C.ar    1  UNL1        0.0772
     30 C         142.6655  135.4723  155.2646 C.ar    1  UNL1        0.0477
     31 C         142.3456  136.5953  154.3231 C.3     1  UNL1        0.0494
     32 C         141.8873  136.2956  152.9266 C.3     1  UNL1        0.0738
     33 N         141.7490  134.8730  152.4716 N.3     1  UNL1       -0.2922
     34 C         142.0689  133.7500  153.4131 C.3     1  UNL1        0.1150
     35 H         142.3599  134.7619  151.6624 H       1  UNL1        0.1236
@<TRIPOS>BOND
     1     1     2    2
     2     2     3   am
     3     3    14    1
     4    14    15   ar
     5    15    16   ar
     6    16    17   ar
     7    17    18   ar
     8    18    20    1
     9    20    21    1
    10    20    22    1
    11    20    23    1
    12    18    19   ar
    13     2     4   am
    14     4     5   ar
    15     5     6   ar
    16     6     7   ar
    17     7     8   ar
    18     8     9   ar
    19     9    24    1
    20    24    25    1
    21    25    26   ar
    22    26    27   ar
    23    27    28   ar
    24    28    29   ar
    25    29    30   ar
    26    30    31    1
    27    31    32    1
    28    32    33    1
    29    33    34    1
    30     9    10   ar
    31    10    11   ar
    32    11    12   ar
    33    19    14   ar
    34    12     4   ar
    35    12     7   ar
    36    30    25   ar
    37    34    29    1
    38     3    13    1
    39    33    35    1
@<TRIPOS>MOLECULE
*****
 35 39 0 0 0
SMALL
GASTEIGER

@<TRIPOS>ATOM
      1 O         142.5200  140.2874  164.3289 O.2     1  UNL1       -0.2489
      2 C         141.0554  140.0845  164.0759 C.2     1  UNL1        0.3237
      3 N         140.0604  140.3684  165.1619 N.am    1  UNL1       -0.2657
      4 N         140.5859  139.5977  162.7371 N.ar    1  UNL1       -0.2609
      5 C         139.1611  139.3494  162.3392 C.ar    1  UNL1        0.0842
      6 C         139.1534  138.8720  160.9172 C.ar    1  UNL1        0.0207
      7 C         140.5734  138.8252  160.4363 C.ar    1  UNL1        0.0208
      8 C         141.1746  138.4321  159.1194 C.ar    1  UNL1        0.0390
      9 C         142.6612  138.4876  158.9273 C.ar    1  UNL1        0.1473
     10 C         143.5466  138.9361  160.0521 C.ar    1  UNL1        0.0390
     11 C         142.9453  139.3292  161.3689 C.ar    1  UNL1        0.0208
     12 C         141.4587  139.2737  161.5610 C.ar    1  UNL1        0.0683
     13 H         139.0992  140.2352  164.9959 H       1  UNL1        0.1566
     14 C         140.5299  140.8552  166.5007 C.ar    1  UNL1        0.0517
     15 C         140.3120  142.2853  166.8974 C.ar    1  UNL1        0.0147
     16 C         140.7815  142.7722  168.2363 C.ar    1  UNL1        0.0012
     17 C         141.4688  141.8289  169.1786 C.ar    1  UNL1        0.0039
     18 C         141.6867  140.3988  168.7820 C.ar    1  UNL1        0.0727
     19 C         141.2172  139.9119  167.4430 C.ar    1  UNL1        0.0186
     20 C         142.3740  139.4556  169.7242 C.3     1  UNL1        0.4186
     21 F         143.0614  138.5123  170.6666 F       1  UNL1       -0.1659
     22 F         142.8905  138.6666  168.5577 F       1  UNL1       -0.1659
     23 F         141.8575  140.2446  170.8907 F       1  UNL1       -0.1659
     24 O         143.2625  138.0946  157.6106 O.3     1  UNL1       -0.4363
     25 C         142.4334  137.3654  156.5952 C.ar    1  UNL1        0.2282
     26 N         141.5931  138.1356  155.6203 N.ar    1  UNL1       -0.1893
     27 C         140.7640  137.4065  154.6049 C.ar    1  UNL1        0.2012
     28 N         140.7751  135.9071  154.5646 N.ar    1  UNL1       -0.2271
     29 C         141.6154  135.1368  155.5397 C.ar    1  UNL1        0.0772
     30 C         142.4445  135.8659  156.5550 C.ar    1  UNL1        0.0477
     31 C         143.2848  135.0957  157.5300 C.3     1  UNL1        0.0494
     32 C         143.2959  133.5963  157.4897 C.3     1  UNL1        0.0738
     33 N         142.4668  132.8672  156.4743 N.3     1  UNL1       -0.2922
     34 C         141.6265  133.6374  155.4993 C.3     1  UNL1        0.1150
     35 H         141.8330  132.2594  156.9934 H       1  UNL1        0.1236
@<TRIPOS>BOND
     1     1     2    2
     2     2     3   am
     3     3    14    1
     4    14    15   ar
     5    15    16   ar
     6    16    17   ar
     7    17    18   ar
     8    18    20    1
     9    20    21    1
    10    20    22    1
    11    20    23    1
    12    18    19   ar
    13     2     4   am
    14     4     5   ar
    15     5     6   ar
    16     6     7   ar
    17     7     8   ar
    18     8     9   ar
    19     9    24    1
    20    24    25    1
    21    25    26   ar
    22    26    27   ar
    23    27    28   ar
    24    28    29   ar
    25    29    30   ar
    26    30    31    1
    27    31    32    1
    28    32    33    1
    29    33    34    1
    30     9    10   ar
    31    10    11   ar
    32    11    12   ar
    33    19    14   ar
    34    12     4   ar
    35    12     7   ar
    36    30    25   ar
    37    34    29    1
    38     3    13    1
    39    33    35    1
@<TRIPOS>MOLECULE
*****
 35 39 0 0 0
SMALL
GASTEIGER

@<TRIPOS>ATOM
      1 O         137.4994  139.7691  159.5885 O.2     1  UNL1       -0.2489
      2 C         138.1635  141.1022  159.4104 C.2     1  UNL1        0.3237
      3 N         138.2299  141.7313  158.0504 N.am    1  UNL1       -0.2657
      4 N         138.7613  141.8062  160.5924 N.ar    1  UNL1       -0.2609
      5 C         139.4539  143.1366  160.5686 C.ar    1  UNL1        0.0842
      6 C         139.8920  143.4560  161.9672 C.ar    1  UNL1        0.0207
      7 C         139.4703  142.3231  162.8552 C.ar    1  UNL1        0.0208
      8 C         139.6323  142.0883  164.3279 C.ar    1  UNL1        0.0390
      9 C         139.0955  140.8338  164.9508 C.ar    1  UNL1        0.1473
     10 C         138.3966  139.8142  164.1011 C.ar    1  UNL1        0.0390
     11 C         138.2346  140.0490  162.6285 C.ar    1  UNL1        0.0208
     12 C         138.7714  141.3035  162.0056 C.ar    1  UNL1        0.0683
     13 H         138.6658  142.6062  157.9335 H       1  UNL1        0.1566
     14 C         137.6321  141.0273  156.8684 C.ar    1  UNL1        0.0517
     15 C         138.4387  140.0131  156.1127 C.ar    1  UNL1        0.0147
     16 C         137.8410  139.3091  154.9307 C.ar    1  UNL1        0.0012
     17 C         136.4368  139.6193  154.5043 C.ar    1  UNL1        0.0039
     18 C         135.6302  140.6334  155.2599 C.ar    1  UNL1        0.0727
     19 C         136.2279  141.3375  156.4420 C.ar    1  UNL1        0.0186
     20 C         134.2259  140.9436  154.8335 C.3     1  UNL1        0.4186
     21 F         132.8216  141.2537  154.4071 F       1  UNL1       -0.1659
     22 F         134.6721  140.9962  153.4024 F       1  UNL1       -0.1659
     23 F         133.7797  140.8909  156.2647 F       1  UNL1       -0.1659
     24 O         139.2575  140.5989  166.4234 O.3     1  UNL1       -0.4363
     25 C         140.5511  140.0610  166.9592 C.ar    1  UNL1        0.2282
     26 N         141.5121  139.3659  166.0409 N.ar    1  UNL1       -0.1893
     27 C         142.8057  138.8279  166.5768 C.ar    1  UNL1        0.2012
     28 N         143.1383  138.9850  168.0309 N.ar    1  UNL1       -0.2271
     29 C         142.1773  139.6801  168.9493 C.ar    1  UNL1        0.0772
     30 C         140.8837  140.2181  168.4135 C.ar    1  UNL1        0.0477
     31 C         139.9228  140.9132  169.3318 C.3     1  UNL1        0.0494
     32 C         140.2554  141.0703  170.7860 C.3     1  UNL1        0.0738
     33 N         141.5490  140.5323  171.3218 N.3     1  UNL1       -0.2922
     34 C         142.5100  139.8372  170.4035 C.3     1  UNL1        0.1150
     35 H         141.3093  139.8661  172.0561 H       1  UNL1        0.1236
@<TRIPOS>BOND
     1     1     2    2
     2     2     3   am
     3     3    14    1
     4    14    15   ar
     5    15    16   ar
     6    16    17   ar
     7    17    18   ar
     8    18    20    1
     9    20    21    1
    10    20    22    1
    11    20    23    1
    12    18    19   ar
    13     2     4   am
    14     4     5   ar
    15     5     6   ar
    16     6     7   ar
    17     7     8   ar
    18     8     9   ar
    19     9    24    1
    20    24    25    1
    21    25    26   ar
    22    26    27   ar
    23    27    28   ar
    24    28    29   ar
    25    29    30   ar
    26    30    31    1
    27    31    32    1
    28    32    33    1
    29    33    34    1
    30     9    10   ar
    31    10    11   ar
    32    11    12   ar
    33    19    14   ar
    34    12     4   ar
    35    12     7   ar
    36    30    25   ar
    37    34    29    1
    38     3    13    1
    39    33    35    1
@<TRIPOS>MOLECULE
*****
 35 39 0 0 0
SMALL
GASTEIGER

@<TRIPOS>ATOM
      1 O         141.4931  143.3038  165.1225 O.2     1  UNL1       -0.2489
      2 C         142.5304  142.2530  164.8584 C.2     1  UNL1        0.3237
      3 N         143.0639  141.4248  165.9895 N.am    1  UNL1       -0.2657
      4 N         143.0343  142.0304  163.4632 N.ar    1  UNL1       -0.2609
      5 C         144.0641  141.0218  163.0482 C.ar    1  UNL1        0.0842
      6 C         144.2631  141.1454  161.5665 C.ar    1  UNL1        0.0207
      7 C         143.3562  142.2303  161.0660 C.ar    1  UNL1        0.0208
      8 C         143.1239  142.7908  159.6941 C.ar    1  UNL1        0.0390
      9 C         142.1321  143.8982  159.4946 C.ar    1  UNL1        0.1473
     10 C         141.3726  144.4452  160.6668 C.ar    1  UNL1        0.0390
     11 C         141.6050  143.8847  162.0386 C.ar    1  UNL1        0.0208
     12 C         142.5968  142.7772  162.2382 C.ar    1  UNL1        0.0683
     13 H         143.7447  140.7351  165.8162 H       1  UNL1        0.1566
     14 C         142.5600  141.6473  167.3847 C.ar    1  UNL1        0.0517
     15 C         143.3870  142.4245  168.3657 C.ar    1  UNL1        0.0147
     16 C         142.8832  142.6471  169.7609 C.ar    1  UNL1        0.0012
     17 C         141.5525  142.0925  170.1753 C.ar    1  UNL1        0.0039
     18 C         140.7255  141.3154  169.1943 C.ar    1  UNL1        0.0727
     19 C         141.2293  141.0928  167.7990 C.ar    1  UNL1        0.0186
     20 C         139.3948  140.7608  169.6087 C.3     1  UNL1        0.4186
     21 F         138.0640  140.2062  170.0229 F       1  UNL1       -0.1659
     22 F         139.1515  141.9761  170.4536 F       1  UNL1       -0.1659
     23 F         139.6382  139.5456  168.7636 F       1  UNL1       -0.1659
     24 O         141.8997  144.4587  158.1228 O.3     1  UNL1       -0.4363
     25 C         140.7920  143.9167  157.2689 C.ar    1  UNL1        0.2282
     26 N         140.5844  142.4351  157.1611 N.ar    1  UNL1       -0.1893
     27 C         139.4767  141.8931  156.3071 C.ar    1  UNL1        0.2012
     28 N         138.5765  142.8327  155.5610 N.ar    1  UNL1       -0.2271
     29 C         138.7840  144.3144  155.6688 C.ar    1  UNL1        0.0772
     30 C         139.8918  144.8564  156.5227 C.ar    1  UNL1        0.0477
     31 C         140.0993  146.3381  156.6305 C.3     1  UNL1        0.0494
     32 C         139.1991  147.2777  155.8844 C.3     1  UNL1        0.0738
     33 N         138.0914  146.7357  155.0304 N.3     1  UNL1       -0.2922
     34 C         137.8839  145.2541  154.9226 C.3     1  UNL1        0.1150
     35 H         138.2538  147.0799  154.0841 H       1  UNL1        0.1236
@<TRIPOS>BOND
     1     1     2    2
     2     2     3   am
     3     3    14    1
     4    14    15   ar
     5    15    16   ar
     6    16    17   ar
     7    17    18   ar
     8    18    20    1
     9    20    21    1
    10    20    22    1
    11    20    23    1
    12    18    19   ar
    13     2     4   am
    14     4     5   ar
    15     5     6   ar
    16     6     7   ar
    17     7     8   ar
    18     8     9   ar
    19     9    24    1
    20    24    25    1
    21    25    26   ar
    22    26    27   ar
    23    27    28   ar
    24    28    29   ar
    25    29    30   ar
    26    30    31    1
    27    31    32    1
    28    32    33    1
    29    33    34    1
    30     9    10   ar
    31    10    11   ar
    32    11    12   ar
    33    19    14   ar
    34    12     4   ar
    35    12     7   ar
    36    30    25   ar
    37    34    29    1
    38     3    13    1
    39    33    35    1
@<TRIPOS>MOLECULE
*****
 35 39 0 0 0
SMALL
GASTEIGER

@<TRIPOS>ATOM
      1 O         141.8128  140.8820  164.5449 O.2     1  UNL1       -0.2489
      2 C         140.6689  139.9420  164.7854 C.2     1  UNL1        0.3237
      3 N         140.2500  139.6140  166.1879 N.am    1  UNL1       -0.2657
      4 N         139.9439  139.3300  163.6236 N.ar    1  UNL1       -0.2609
      5 C         138.7878  138.3781  163.7082 C.ar    1  UNL1        0.0842
      6 C         138.3771  138.0223  162.3101 C.ar    1  UNL1        0.0207
      7 C         139.2793  138.7544  161.3615 C.ar    1  UNL1        0.0208
      8 C         139.3443  138.7894  159.8633 C.ar    1  UNL1        0.0390
      9 C         140.3776  139.6327  159.1769 C.ar    1  UNL1        0.1473
     10 C         141.3459  140.4410  159.9888 C.ar    1  UNL1        0.0390
     11 C         141.2810  140.4059  161.4869 C.ar    1  UNL1        0.0208
     12 C         140.2477  139.5626  162.1733 C.ar    1  UNL1        0.0683
     13 H         139.4992  138.9971  166.3458 H       1  UNL1        0.1566
     14 C         140.9749  140.2260  167.3498 C.ar    1  UNL1        0.0517
     15 C         142.1161  139.4939  167.9916 C.ar    1  UNL1        0.0147
     16 C         142.8411  140.1057  169.1535 C.ar    1  UNL1        0.0012
     17 C         142.4250  141.4497  169.6735 C.ar    1  UNL1        0.0039
     18 C         141.2839  142.1819  169.0318 C.ar    1  UNL1        0.0727
     19 C         140.5589  141.5700  167.8698 C.ar    1  UNL1        0.0186
     20 C         140.8678  143.5259  169.5519 C.3     1  UNL1        0.4186
     21 F         140.4518  144.8700  170.0720 F       1  UNL1       -0.1659
     22 F         139.9173  143.6768  168.4013 F       1  UNL1       -0.1659
     23 F         141.8184  143.3749  170.7024 F       1  UNL1       -0.1659
     24 O         140.4426  139.6678  157.6787 O.3     1  UNL1       -0.4363
     25 C         141.1987  138.6066  156.9358 C.ar    1  UNL1        0.2282
     26 N         140.5304  137.3070  156.5977 N.ar    1  UNL1       -0.1893
     27 C         141.2865  136.2457  155.8547 C.ar    1  UNL1        0.2012
     28 N         142.7110  136.4841  155.4498 N.ar    1  UNL1       -0.2271
     29 C         143.3794  137.7838  155.7878 C.ar    1  UNL1        0.0772
     30 C         142.6233  138.8450  156.5308 C.ar    1  UNL1        0.0477
     31 C         143.2916  140.1446  156.8689 C.3     1  UNL1        0.0494
     32 C         144.7161  140.3829  156.4640 C.3     1  UNL1        0.0738
     33 N         145.4722  139.3217  155.7210 N.3     1  UNL1       -0.2922
     34 C         144.8039  138.0221  155.3829 C.3     1  UNL1        0.1150
     35 H         146.2908  139.0938  156.2852 H       1  UNL1        0.1236
@<TRIPOS>BOND
     1     1     2    2
     2     2     3   am
     3     3    14    1
     4    14    15   ar
     5    15    16   ar
     6    16    17   ar
     7    17    18   ar
     8    18    20    1
     9    20    21    1
    10    20    22    1
    11    20    23    1
    12    18    19   ar
    13     2     4   am
    14     4     5   ar
    15     5     6   ar
    16     6     7   ar
    17     7     8   ar
    18     8     9   ar
    19     9    24    1
    20    24    25    1
    21    25    26   ar
    22    26    27   ar
    23    27    28   ar
    24    28    29   ar
    25    29    30   ar
    26    30    31    1
    27    31    32    1
    28    32    33    1
    29    33    34    1
    30     9    10   ar
    31    10    11   ar
    32    11    12   ar
    33    19    14   ar
    34    12     4   ar
    35    12     7   ar
    36    30    25   ar
    37    34    29    1
    38     3    13    1
    39    33    35    1
