@<TRIPOS>MOLECULE
*****
 44 46 0 0 0
SMALL
GASTEIGER

@<TRIPOS>ATOM
      1 C         141.6449  142.1364  165.1722 C.3     1  UNL1        0.0847
      2 C         138.9039  143.3386  162.5661 C.ar    1  UNL1        0.1653
      3 C         140.0666  142.6013  163.1615 C.ar    1  UNL1        0.0365
      4 C         140.4821  142.8737  164.5768 C.ar    1  UNL1       -0.0022
      5 C         139.7350  143.8834  165.3967 C.ar    1  UNL1       -0.0002
      6 C         138.5723  144.6207  164.8013 C.ar    1  UNL1        0.0325
      7 C         138.1568  144.3483  163.3860 C.ar    1  UNL1        0.1738
      8 F         136.9940  145.0856  162.7906 F       1  UNL1       -0.2010
      9 O         138.4884  143.0662  161.1508 O.3     1  UNL1       -0.4769
     10 C         139.2307  141.3155  159.3804 C.3     1  UNL1        0.0472
     11 C         138.4760  141.6595  160.6303 C.3     1  UNL1        0.1662
     12 C         137.7089  140.5966  161.3597 C.3     1  UNL1        0.0472
     13 C         140.8650  140.8566  165.1106 C.ar    1  UNL1       -0.0001
     14 C         139.6482  140.6777  165.9694 C.ar    1  UNL1        0.0271
     15 C         138.8683  139.3979  165.9077 C.ar    1  UNL1        0.1429
     16 F         137.6397  138.8917  166.6038 F       1  UNL1       -0.2041
     17 C         139.3051  138.2969  164.9874 C.ar    1  UNL1        0.0667
     18 C         140.5219  138.4758  164.1286 C.ar    1  UNL1        0.1461
     19 C         141.3018  139.7556  164.1902 C.ar    1  UNL1        0.0345
     20 O         140.9588  137.3748  163.2082 O.3     1  UNL1       -0.4263
     21 C         141.6129  137.7064  161.8997 C.3     1  UNL1        0.4723
     22 F         140.2647  137.7951  161.2483 F       1  UNL1       -0.1579
     23 F         142.9611  137.6176  162.5513 F       1  UNL1       -0.1579
     24 C         142.2670  138.0379  160.5913 C.3     1  UNL1        0.4202
     25 F         141.4314  138.2103  159.3575 F       1  UNL1       -0.1876
     26 F         143.7567  138.1971  160.5165 F       1  UNL1       -0.1876
     27 N         142.4248  143.4162  165.2338 N.3     1  UNL1       -0.2909
     28 H         142.4913  143.6733  166.2187 H       1  UNL1        0.1238
     29 C         143.8161  143.4742  164.6762 C.3     1  UNL1        0.0989
     30 C         144.0347  143.8661  163.2449 C.3     1  UNL1        0.1347
     31 O         143.6837  145.2497  162.7841 O.3     1  UNL1       -0.3827
     32 H         143.8855  145.3368  161.8394 H       1  UNL1        0.2104
     33 C         144.6044  142.8743  162.2743 C.3     1  UNL1        0.1339
     34 C         144.8218  141.4516  162.6966 C.3     1  UNL1        0.4002
     35 F         145.0393  140.0288  163.1190 F       1  UNL1       -0.1700
     36 F         143.4477  141.0973  162.2108 F       1  UNL1       -0.1700
     37 F         146.1961  141.8058  163.1826 F       1  UNL1       -0.1700
     38 C         142.8076  141.3992  165.7676 C.3     1  UNL1        0.0492
     39 C         142.8324  141.0992  167.2372 C.ar    1  UNL1       -0.0202
     40 C         142.6051  139.6975  167.7205 C.ar    1  UNL1       -0.0042
     41 C         142.6299  139.3976  169.1900 C.ar    1  UNL1       -0.0003
     42 C         142.8821  140.4994  170.1761 C.ar    1  UNL1       -0.0000
     43 C         143.1095  141.9010  169.6928 C.ar    1  UNL1       -0.0003
     44 C         143.0847  142.2009  168.2234 C.ar    1  UNL1       -0.0042
@<TRIPOS>BOND
     1    10    11    1
     2    11    12    1
     3    11     9    1
     4     9     2    1
     5     2     3   ar
     6     3     4   ar
     7     4     1    1
     8     1    38    1
     9    38    39    1
    10    39    40   ar
    11    40    41   ar
    12    41    42   ar
    13    42    43   ar
    14    43    44   ar
    15     1    27    1
    16    27    29    1
    17    29    30    1
    18    30    31    1
    19    30    33    1
    20    33    34    1
    21    34    35    1
    22    34    36    1
    23    34    37    1
    24     1    13    1
    25    13    14   ar
    26    14    15   ar
    27    15    16    1
    28    15    17   ar
    29    17    18   ar
    30    18    20    1
    31    20    21    1
    32    21    22    1
    33    21    23    1
    34    21    24    1
    35    24    25    1
    36    24    26    1
    37    18    19   ar
    38     4     5   ar
    39     5     6   ar
    40     6     7   ar
    41     7     8    1
    42     7     2   ar
    43    44    39   ar
    44    19    13   ar
    45    27    28    1
    46    31    32    1
@<TRIPOS>MOLECULE
*****
 44 46 0 0 0
SMALL
GASTEIGER

@<TRIPOS>ATOM
      1 C         140.3742  141.2239  165.1539 C.3     1  UNL1        0.0847
      2 C         139.9479  143.8573  162.2157 C.ar    1  UNL1        0.1653
      3 C         140.2700  142.5863  162.9442 C.ar    1  UNL1        0.0365
      4 C         140.0521  142.4950  164.4254 C.ar    1  UNL1       -0.0022
      5 C         139.5120  143.6747  165.1782 C.ar    1  UNL1       -0.0002
      6 C         139.1899  144.9457  164.4497 C.ar    1  UNL1        0.0325
      7 C         139.4078  145.0370  162.9685 C.ar    1  UNL1        0.1738
      8 F         139.0856  146.3081  162.2399 F       1  UNL1       -0.2010
      9 O         140.1658  143.9487  160.7344 O.3     1  UNL1       -0.4769
     10 C         138.5870  142.2704  159.5342 C.3     1  UNL1        0.0472
     11 C         139.9720  142.7370  159.8717 C.3     1  UNL1        0.1662
     12 C         141.1633  141.9920  159.3464 C.3     1  UNL1        0.0472
     13 C         141.8351  141.4464  164.8963 C.ar    1  UNL1       -0.0001
     14 C         142.5567  142.5650  165.5877 C.ar    1  UNL1        0.0271
     15 C         144.0176  142.7875  165.3300 C.ar    1  UNL1        0.1429
     16 F         145.0251  143.7788  165.8323 F       1  UNL1       -0.2041
     17 C         144.7568  141.8915  164.3810 C.ar    1  UNL1        0.0667
     18 C         144.0352  140.7729  163.6897 C.ar    1  UNL1        0.1461
     19 C         142.5743  140.5503  163.9473 C.ar    1  UNL1        0.0345
     20 O         144.7744  139.8768  162.7406 O.3     1  UNL1       -0.4263
     21 C         144.0801  139.3338  161.5270 C.3     1  UNL1        0.4723
     22 F         143.9858  137.9882  162.1828 F       1  UNL1       -0.1579
     23 F         144.1743  140.6796  160.8711 F       1  UNL1       -0.1579
     24 C         143.3857  138.7909  160.3133 C.3     1  UNL1        0.4202
     25 F         142.4490  137.6265  160.4431 F       1  UNL1       -0.1876
     26 F         143.6281  139.4123  158.9697 F       1  UNL1       -0.1876
     27 N         138.9134  141.0014  165.4116 N.3     1  UNL1       -0.2909
     28 H         138.4367  141.8712  165.1739 H       1  UNL1        0.1238
     29 C         138.1854  139.9000  164.6994 C.3     1  UNL1        0.0989
     30 C         137.7276  140.0961  163.2845 C.3     1  UNL1        0.1347
     31 O         136.7251  141.1643  162.9618 O.3     1  UNL1       -0.3827
     32 H         136.5396  141.1566  162.0098 H       1  UNL1        0.2104
     33 C         138.2721  139.2240  162.1922 C.3     1  UNL1        0.1339
     34 C         139.4370  138.3193  162.4653 C.3     1  UNL1        0.4002
     35 F         140.6018  137.4147  162.7384 F       1  UNL1       -0.1700
     36 F         140.3750  139.3734  161.9564 F       1  UNL1       -0.1700
     37 F         138.4990  137.2652  162.9743 F       1  UNL1       -0.1700
     38 C         140.6963  139.9529  165.8825 C.3     1  UNL1        0.0492
     39 C         140.8828  139.9681  167.3708 C.ar    1  UNL1       -0.0202
     40 C         139.7245  140.2880  168.2685 C.ar    1  UNL1       -0.0042
     41 C         139.9109  140.3032  169.7568 C.ar    1  UNL1       -0.0003
     42 C         141.2557  139.9985  170.3473 C.ar    1  UNL1       -0.0000
     43 C         142.4140  139.6785  169.4496 C.ar    1  UNL1       -0.0003
     44 C         142.2275  139.6633  167.9613 C.ar    1  UNL1       -0.0042
@<TRIPOS>BOND
     1    10    11    1
     2    11    12    1
     3    11     9    1
     4     9     2    1
     5     2     3   ar
     6     3     4   ar
     7     4     1    1
     8     1    38    1
     9    38    39    1
    10    39    40   ar
    11    40    41   ar
    12    41    42   ar
    13    42    43   ar
    14    43    44   ar
    15     1    27    1
    16    27    29    1
    17    29    30    1
    18    30    31    1
    19    30    33    1
    20    33    34    1
    21    34    35    1
    22    34    36    1
    23    34    37    1
    24     1    13    1
    25    13    14   ar
    26    14    15   ar
    27    15    16    1
    28    15    17   ar
    29    17    18   ar
    30    18    20    1
    31    20    21    1
    32    21    22    1
    33    21    23    1
    34    21    24    1
    35    24    25    1
    36    24    26    1
    37    18    19   ar
    38     4     5   ar
    39     5     6   ar
    40     6     7   ar
    41     7     8    1
    42     7     2   ar
    43    44    39   ar
    44    19    13   ar
    45    27    28    1
    46    31    32    1
@<TRIPOS>MOLECULE
*****
 44 46 0 0 0
SMALL
GASTEIGER

@<TRIPOS>ATOM
      1 C         141.5895  141.7967  165.6287 C.3     1  UNL1        0.0847
      2 C         138.9249  142.9611  162.9280 C.ar    1  UNL1        0.1653
      3 C         140.0284  142.1900  163.5895 C.ar    1  UNL1        0.0365
      4 C         140.4859  142.5678  164.9671 C.ar    1  UNL1       -0.0022
      5 C         139.8400  143.7167  165.6832 C.ar    1  UNL1       -0.0002
      6 C         138.7365  144.4878  165.0216 C.ar    1  UNL1        0.0325
      7 C         138.2789  144.1100  163.6440 C.ar    1  UNL1        0.1738
      8 F         137.1754  144.8811  162.9824 F       1  UNL1       -0.2010
      9 O         138.4673  142.5832  161.5503 O.3     1  UNL1       -0.4769
     10 C         137.7586  140.1659  162.1861 C.3     1  UNL1        0.0472
     11 C         138.3067  141.1377  161.1835 C.3     1  UNL1        0.1662
     12 C         138.6943  140.6639  159.8140 C.3     1  UNL1        0.0472
     13 C         140.8079  140.5284  165.4543 C.ar    1  UNL1       -0.0001
     14 C         139.5750  140.2884  166.2742 C.ar    1  UNL1        0.0271
     15 C         138.7934  139.0200  166.0997 C.ar    1  UNL1        0.1429
     16 F         137.5510  138.4663  166.7319 F       1  UNL1       -0.2041
     17 C         139.2448  137.9917  165.1053 C.ar    1  UNL1        0.0667
     18 C         140.4777  138.2317  164.2854 C.ar    1  UNL1        0.1461
     19 C         141.2593  139.5000  164.4598 C.ar    1  UNL1        0.0345
     20 O         140.9291  137.2033  163.2910 O.3     1  UNL1       -0.4263
     21 C         141.4508  137.6331  161.9519 C.3     1  UNL1        0.4723
     22 F         140.0454  137.7400  161.4387 F       1  UNL1       -0.1579
     23 F         142.8562  137.5263  162.4652 F       1  UNL1       -0.1579
     24 C         141.9725  138.0629  160.6129 C.3     1  UNL1        0.4202
     25 F         143.4412  138.2996  160.4209 F       1  UNL1       -0.1876
     26 F         141.0254  138.2561  159.4658 F       1  UNL1       -0.1876
     27 N         142.3710  143.0651  165.8032 N.3     1  UNL1       -0.2909
     28 H         142.3824  143.2688  166.8026 H       1  UNL1        0.1238
     29 C         143.7923  143.1414  165.3295 C.3     1  UNL1        0.0989
     30 C         144.0891  143.4910  163.9014 C.3     1  UNL1        0.1347
     31 O         144.7498  142.4860  163.0050 O.3     1  UNL1       -0.3827
     32 H         144.8686  142.8692  162.1219 H       1  UNL1        0.2104
     33 C         143.7253  144.8456  163.3696 C.3     1  UNL1        0.1339
     34 C         142.3430  145.0991  162.8454 C.3     1  UNL1        0.4002
     35 F         140.9606  145.3526  162.3213 F       1  UNL1       -0.1700
     36 F         142.7007  144.4036  161.5655 F       1  UNL1       -0.1700
     37 F         141.9852  145.7946  164.1254 F       1  UNL1       -0.1700
     38 C         142.6930  141.0257  166.2903 C.3     1  UNL1        0.0492
     39 C         142.6505  140.7742  167.7685 C.ar    1  UNL1       -0.0202
     40 C         142.6783  141.9278  168.7267 C.ar    1  UNL1       -0.0042
     41 C         142.6358  141.6762  170.2048 C.ar    1  UNL1       -0.0003
     42 C         142.5655  140.2710  170.7247 C.ar    1  UNL1       -0.0000
     43 C         142.5377  139.1173  169.7665 C.ar    1  UNL1       -0.0003
     44 C         142.5802  139.3689  168.2884 C.ar    1  UNL1       -0.0042
@<TRIPOS>BOND
     1    10    11    1
     2    11    12    1
     3    11     9    1
     4     9     2    1
     5     2     3   ar
     6     3     4   ar
     7     4     1    1
     8     1    38    1
     9    38    39    1
    10    39    40   ar
    11    40    41   ar
    12    41    42   ar
    13    42    43   ar
    14    43    44   ar
    15     1    27    1
    16    27    29    1
    17    29    30    1
    18    30    31    1
    19    30    33    1
    20    33    34    1
    21    34    35    1
    22    34    36    1
    23    34    37    1
    24     1    13    1
    25    13    14   ar
    26    14    15   ar
    27    15    16    1
    28    15    17   ar
    29    17    18   ar
    30    18    20    1
    31    20    21    1
    32    21    22    1
    33    21    23    1
    34    21    24    1
    35    24    25    1
    36    24    26    1
    37    18    19   ar
    38     4     5   ar
    39     5     6   ar
    40     6     7   ar
    41     7     8    1
    42     7     2   ar
    43    44    39   ar
    44    19    13   ar
    45    27    28    1
    46    31    32    1
@<TRIPOS>MOLECULE
*****
 44 46 0 0 0
SMALL
GASTEIGER

@<TRIPOS>ATOM
      1 C         141.6089  141.3941  165.4555 C.3     1  UNL1        0.0847
      2 C         142.7397  144.0256  162.7084 C.ar    1  UNL1        0.1653
      3 C         141.9783  142.9288  163.3919 C.ar    1  UNL1        0.0365
      4 C         142.3703  142.4910  164.7719 C.ar    1  UNL1       -0.0022
      5 C         143.5237  143.1501  165.4685 C.ar    1  UNL1       -0.0002
      6 C         144.2851  144.2470  164.7850 C.ar    1  UNL1        0.0325
      7 C         143.8931  144.6847  163.4050 C.ar    1  UNL1        0.1738
      8 F         144.6545  145.7816  162.7214 F       1  UNL1       -0.2010
      9 O         142.3476  144.4634  161.3282 O.3     1  UNL1       -0.4769
     10 C         140.2834  145.7332  162.2645 C.3     1  UNL1        0.0472
     11 C         141.0317  145.1475  161.1039 C.3     1  UNL1        0.1662
     12 C         140.4640  145.2458  159.7189 C.3     1  UNL1        0.0472
     13 C         140.3195  142.0925  165.1401 C.ar    1  UNL1       -0.0001
     14 C         139.9929  143.3988  165.8011 C.ar    1  UNL1        0.0271
     15 C         138.7034  144.0973  165.4857 C.ar    1  UNL1        0.1429
     16 F         138.0719  145.3774  165.9466 F       1  UNL1       -0.2041
     17 C         137.7406  143.4894  164.5093 C.ar    1  UNL1        0.0667
     18 C         138.0672  142.1831  163.8483 C.ar    1  UNL1        0.1461
     19 C         139.3566  141.4847  164.1637 C.ar    1  UNL1        0.0345
     20 O         137.1042  141.5753  162.8718 O.3     1  UNL1       -0.4263
     21 C         137.6186  140.8524  161.6624 C.3     1  UNL1        0.4723
     22 F         137.8541  142.1660  160.9775 F       1  UNL1       -0.1579
     23 F         137.3831  139.5388  162.3473 F       1  UNL1       -0.1579
     24 C         138.1330  140.1296  160.4529 C.3     1  UNL1        0.4202
     25 F         137.3609  140.1742  159.1677 F       1  UNL1       -0.1876
     26 F         139.4197  139.3621  160.5286 F       1  UNL1       -0.1876
     27 N         142.8984  140.6957  165.7709 N.3     1  UNL1       -0.2909
     28 H         142.9258  140.5709  166.7828 H       1  UNL1        0.1238
     29 C         143.1951  139.3575  165.1614 C.3     1  UNL1        0.0989
     30 C         143.1941  139.1958  163.6702 C.3     1  UNL1        0.1347
     31 O         141.9302  138.8148  162.9580 O.3     1  UNL1       -0.3827
     32 H         142.1019  138.7529  162.0053 H       1  UNL1        0.2104
     33 C         144.4571  139.4149  162.8911 C.3     1  UNL1        0.1339
     34 C         144.9568  140.8083  162.6490 C.3     1  UNL1        0.4002
     35 F         145.4564  142.2018  162.4069 F       1  UNL1       -0.1700
     36 F         144.0747  140.9146  161.4404 F       1  UNL1       -0.1700
     37 F         145.8389  140.7021  163.8576 F       1  UNL1       -0.1700
     38 C         140.8476  140.2973  166.1390 C.3     1  UNL1        0.0492
     39 C         140.4971  140.4206  167.5923 C.ar    1  UNL1       -0.0202
     40 C         141.4767  141.0295  168.5511 C.ar    1  UNL1       -0.0042
     41 C         141.1261  141.1528  170.0043 C.ar    1  UNL1       -0.0003
     42 C         139.7959  140.6671  170.4987 C.ar    1  UNL1       -0.0000
     43 C         138.8162  140.0581  169.5399 C.ar    1  UNL1       -0.0003
     44 C         139.1668  139.9348  168.0867 C.ar    1  UNL1       -0.0042
@<TRIPOS>BOND
     1    10    11    1
     2    11    12    1
     3    11     9    1
     4     9     2    1
     5     2     3   ar
     6     3     4   ar
     7     4     1    1
     8     1    38    1
     9    38    39    1
    10    39    40   ar
    11    40    41   ar
    12    41    42   ar
    13    42    43   ar
    14    43    44   ar
    15     1    27    1
    16    27    29    1
    17    29    30    1
    18    30    31    1
    19    30    33    1
    20    33    34    1
    21    34    35    1
    22    34    36    1
    23    34    37    1
    24     1    13    1
    25    13    14   ar
    26    14    15   ar
    27    15    16    1
    28    15    17   ar
    29    17    18   ar
    30    18    20    1
    31    20    21    1
    32    21    22    1
    33    21    23    1
    34    21    24    1
    35    24    25    1
    36    24    26    1
    37    18    19   ar
    38     4     5   ar
    39     5     6   ar
    40     6     7   ar
    41     7     8    1
    42     7     2   ar
    43    44    39   ar
    44    19    13   ar
    45    27    28    1
    46    31    32    1
@<TRIPOS>MOLECULE
*****
 44 46 0 0 0
SMALL
GASTEIGER

@<TRIPOS>ATOM
      1 C         141.2723  141.4893  165.9769 C.3     1  UNL1        0.0847
      2 C         143.9530  141.7188  163.0595 C.ar    1  UNL1        0.1653
      3 C         142.9784  141.1492  164.0471 C.ar    1  UNL1        0.0365
      4 C         142.2470  142.0589  164.9891 C.ar    1  UNL1       -0.0022
      5 C         142.4903  143.5383  164.9435 C.ar    1  UNL1       -0.0002
      6 C         143.4650  144.1080  163.9558 C.ar    1  UNL1        0.0325
      7 C         144.1963  143.1983  163.0138 C.ar    1  UNL1        0.1738
      8 F         145.1710  143.7679  162.0261 F       1  UNL1       -0.2010
      9 O         144.6844  140.8091  162.1174 O.3     1  UNL1       -0.4769
     10 C         143.9847  138.4358  161.3250 C.3     1  UNL1        0.0472
     11 C         143.9161  139.9270  161.1785 C.3     1  UNL1        0.1662
     12 C         143.0791  140.5363  160.0929 C.3     1  UNL1        0.0472
     13 C         140.1991  142.3864  165.4353 C.ar    1  UNL1       -0.0001
     14 C         139.7179  143.5536  166.2452 C.ar    1  UNL1        0.0271
     15 C         138.6446  144.4508  165.7036 C.ar    1  UNL1        0.1429
     16 F         137.9451  145.6709  166.2251 F       1  UNL1       -0.2041
     17 C         138.0527  144.1807  164.3521 C.ar    1  UNL1        0.0667
     18 C         138.5339  143.0135  163.5422 C.ar    1  UNL1        0.1461
     19 C         139.6071  142.1163  164.0837 C.ar    1  UNL1        0.0345
     20 O         137.9419  142.7434  162.1906 O.3     1  UNL1       -0.4263
     21 C         137.8301  141.3343  161.6888 C.3     1  UNL1        0.4723
     22 F         136.9129  141.0013  162.8280 F       1  UNL1       -0.1579
     23 F         138.7473  141.6674  160.5495 F       1  UNL1       -0.1579
     24 C         137.7183  139.9252  161.1869 C.3     1  UNL1        0.4202
     25 F         137.7325  139.6509  159.7122 F       1  UNL1       -0.1876
     26 F         137.5923  138.7903  162.1597 F       1  UNL1       -0.1876
     27 N         142.3455  140.5921  166.5184 N.3     1  UNL1       -0.2909
     28 H         143.2078  140.8377  166.0320 H       1  UNL1        0.1238
     29 C         142.6590  140.5985  167.9854 C.3     1  UNL1        0.0989
     30 C         143.0015  141.8866  168.6735 C.3     1  UNL1        0.1347
     31 O         143.9633  142.8448  168.0358 O.3     1  UNL1       -0.3827
     32 H         144.0732  143.6209  168.6073 H       1  UNL1        0.2104
     33 C         142.3822  142.2164  169.9993 C.3     1  UNL1        0.1339
     34 C         140.8938  142.3610  170.1167 C.3     1  UNL1        0.4002
     35 F         139.4055  142.5056  170.2340 F       1  UNL1       -0.1700
     36 F         140.9597  143.6540  169.3592 F       1  UNL1       -0.1700
     37 F         140.8279  141.0679  170.8742 F       1  UNL1       -0.1700
     38 C         140.2977  140.9196  166.9646 C.3     1  UNL1        0.0492
     39 C         139.5233  139.6806  166.6249 C.ar    1  UNL1       -0.0202
     40 C         138.3008  139.3199  167.4155 C.ar    1  UNL1       -0.0042
     41 C         137.5265  138.0810  167.0758 C.ar    1  UNL1       -0.0003
     42 C         137.9747  137.2027  165.9455 C.ar    1  UNL1       -0.0000
     43 C         139.1973  137.5634  165.1548 C.ar    1  UNL1       -0.0003
     44 C         139.9716  138.8023  165.4945 C.ar    1  UNL1       -0.0042
@<TRIPOS>BOND
     1    10    11    1
     2    11    12    1
     3    11     9    1
     4     9     2    1
     5     2     3   ar
     6     3     4   ar
     7     4     1    1
     8     1    38    1
     9    38    39    1
    10    39    40   ar
    11    40    41   ar
    12    41    42   ar
    13    42    43   ar
    14    43    44   ar
    15     1    27    1
    16    27    29    1
    17    29    30    1
    18    30    31    1
    19    30    33    1
    20    33    34    1
    21    34    35    1
    22    34    36    1
    23    34    37    1
    24     1    13    1
    25    13    14   ar
    26    14    15   ar
    27    15    16    1
    28    15    17   ar
    29    17    18   ar
    30    18    20    1
    31    20    21    1
    32    21    22    1
    33    21    23    1
    34    21    24    1
    35    24    25    1
    36    24    26    1
    37    18    19   ar
    38     4     5   ar
    39     5     6   ar
    40     6     7   ar
    41     7     8    1
    42     7     2   ar
    43    44    39   ar
    44    19    13   ar
    45    27    28    1
    46    31    32    1
@<TRIPOS>MOLECULE
*****
 44 46 0 0 0
SMALL
GASTEIGER

@<TRIPOS>ATOM
      1 C         140.9986  140.8102  164.7836 C.3     1  UNL1        0.0847
      2 C         139.2921  139.8269  168.2289 C.ar    1  UNL1        0.1653
      3 C         140.2698  140.3926  167.2422 C.ar    1  UNL1        0.0365
      4 C         140.0208  140.2444  165.7705 C.ar    1  UNL1       -0.0022
      5 C         138.7941  139.5303  165.2855 C.ar    1  UNL1       -0.0002
      6 C         137.8163  138.9645  166.2723 C.ar    1  UNL1        0.0325
      7 C         138.0653  139.1128  167.7440 C.ar    1  UNL1        0.1738
      8 F         137.0875  138.5470  168.7309 F       1  UNL1       -0.2010
      9 O         139.5410  139.9751  169.7007 O.3     1  UNL1       -0.4769
     10 C         139.8462  142.4928  170.2648 C.3     1  UNL1        0.0472
     11 C         140.3963  141.0985  170.2073 C.3     1  UNL1        0.1662
     12 C         141.8016  140.8275  170.6563 C.3     1  UNL1        0.0472
     13 C         140.0113  141.8784  164.4177 C.ar    1  UNL1       -0.0001
     14 C         139.6574  142.9448  165.4114 C.ar    1  UNL1        0.0271
     15 C         138.6700  144.0131  165.0454 C.ar    1  UNL1        0.1429
     16 F         138.1002  145.1973  165.7686 F       1  UNL1       -0.2041
     17 C         138.0365  144.0149  163.6858 C.ar    1  UNL1        0.0667
     18 C         138.3904  142.9485  162.6921 C.ar    1  UNL1        0.1461
     19 C         139.3777  141.8802  163.0580 C.ar    1  UNL1        0.0345
     20 O         137.7568  142.9503  161.3324 O.3     1  UNL1       -0.4263
     21 C         138.5609  142.5542  160.1297 C.3     1  UNL1        0.4723
     22 F         139.3356  143.8350  160.2259 F       1  UNL1       -0.1579
     23 F         137.7862  141.2733  160.0336 F       1  UNL1       -0.1579
     24 C         139.3651  142.1581  158.9271 C.3     1  UNL1        0.4202
     25 F         139.9614  143.2129  158.0429 F       1  UNL1       -0.1876
     26 F         139.5730  140.7071  158.6085 F       1  UNL1       -0.1876
     27 N         141.9860  139.7419  165.1495 N.3     1  UNL1       -0.2909
     28 H         141.5589  139.1880  165.8918 H       1  UNL1        0.1238
     29 C         142.4647  138.7744  164.1079 C.3     1  UNL1        0.0989
     30 C         141.5796  137.6454  163.6697 C.3     1  UNL1        0.1347
     31 O         141.2768  136.5199  164.6139 O.3     1  UNL1       -0.3827
     32 H         140.6950  135.8787  164.1766 H       1  UNL1        0.2104
     33 C         140.9973  137.6419  162.2873 C.3     1  UNL1        0.1339
     34 C         139.6782  138.3071  162.0274 C.3     1  UNL1        0.4002
     35 F         138.3592  138.9722  161.7675 F       1  UNL1       -0.1700
     36 F         140.3699  139.3611  161.2146 F       1  UNL1       -0.1700
     37 F         138.9865  137.2531  162.8403 F       1  UNL1       -0.1700
     38 C         141.9764  141.3759  163.7968 C.3     1  UNL1        0.0492
     39 C         142.7610  142.6075  164.1401 C.ar    1  UNL1       -0.0202
     40 C         142.5393  143.8764  163.3717 C.ar    1  UNL1       -0.0042
     41 C         143.3238  145.1079  163.7151 C.ar    1  UNL1       -0.0003
     42 C         144.3300  145.0704  164.8269 C.ar    1  UNL1       -0.0000
     43 C         144.5517  143.8014  165.5953 C.ar    1  UNL1       -0.0003
     44 C         143.7672  142.5700  165.2519 C.ar    1  UNL1       -0.0042
@<TRIPOS>BOND
     1    10    11    1
     2    11    12    1
     3    11     9    1
     4     9     2    1
     5     2     3   ar
     6     3     4   ar
     7     4     1    1
     8     1    38    1
     9    38    39    1
    10    39    40   ar
    11    40    41   ar
    12    41    42   ar
    13    42    43   ar
    14    43    44   ar
    15     1    27    1
    16    27    29    1
    17    29    30    1
    18    30    31    1
    19    30    33    1
    20    33    34    1
    21    34    35    1
    22    34    36    1
    23    34    37    1
    24     1    13    1
    25    13    14   ar
    26    14    15   ar
    27    15    16    1
    28    15    17   ar
    29    17    18   ar
    30    18    20    1
    31    20    21    1
    32    21    22    1
    33    21    23    1
    34    21    24    1
    35    24    25    1
    36    24    26    1
    37    18    19   ar
    38     4     5   ar
    39     5     6   ar
    40     6     7   ar
    41     7     8    1
    42     7     2   ar
    43    44    39   ar
    44    19    13   ar
    45    27    28    1
    46    31    32    1
@<TRIPOS>MOLECULE
*****
 44 46 0 0 0
SMALL
GASTEIGER

@<TRIPOS>ATOM
      1 C         140.9362  142.0887  165.6978 C.3     1  UNL1        0.0847
      2 C         142.7535  142.7103  162.2249 C.ar    1  UNL1        0.1653
      3 C         141.7257  142.2824  163.2302 C.ar    1  UNL1        0.0365
      4 C         141.9640  142.5166  164.6925 C.ar    1  UNL1       -0.0022
      5 C         143.2300  143.1787  165.1495 C.ar    1  UNL1       -0.0002
      6 C         144.2578  143.6066  164.1442 C.ar    1  UNL1        0.0325
      7 C         144.0195  143.3724  162.6820 C.ar    1  UNL1        0.1738
      8 F         145.0473  143.8003  161.6766 F       1  UNL1       -0.2010
      9 O         142.5152  142.4762  160.7625 O.3     1  UNL1       -0.4769
     10 C         141.4042  144.7820  160.3171 C.3     1  UNL1        0.0472
     11 C         142.2537  143.6375  159.8499 C.3     1  UNL1        0.1662
     12 C         142.8418  143.6543  158.4700 C.3     1  UNL1        0.0472
     13 C         141.3871  140.6654  165.5531 C.ar    1  UNL1       -0.0001
     14 C         142.6675  140.2156  166.1920 C.ar    1  UNL1        0.0271
     15 C         143.1184  138.7923  166.0472 C.ar    1  UNL1        0.1429
     16 F         144.3079  138.0210  166.5374 F       1  UNL1       -0.2041
     17 C         142.2889  137.8188  165.2635 C.ar    1  UNL1        0.0667
     18 C         141.0085  138.2686  164.6245 C.ar    1  UNL1        0.1461
     19 C         140.5576  139.6919  164.7693 C.ar    1  UNL1        0.0345
     20 O         140.1790  137.2951  163.8408 O.3     1  UNL1       -0.4263
     21 C         139.4792  137.7416  162.5914 C.3     1  UNL1        0.4723
     22 F         140.7426  137.5349  161.8098 F       1  UNL1       -0.1579
     23 F         138.2157  137.9482  163.3731 F       1  UNL1       -0.1579
     24 C         138.7794  138.1880  161.3421 C.3     1  UNL1        0.4202
     25 F         137.3124  138.4996  161.3747 F       1  UNL1       -0.1876
     26 F         139.5465  138.3229  160.0601 F       1  UNL1       -0.1876
     27 N         140.4854  143.5119  165.8426 N.3     1  UNL1       -0.2909
     28 H         141.1417  144.0842  165.3114 H       1  UNL1        0.1238
     29 C         139.1080  143.9108  165.4022 C.3     1  UNL1        0.0989
     30 C         138.8974  144.4975  164.0378 C.3     1  UNL1        0.1347
     31 O         139.8355  145.5471  163.5197 O.3     1  UNL1       -0.3827
     32 H         139.5592  145.8168  162.6299 H       1  UNL1        0.2104
     33 C         137.7487  144.0345  163.1915 C.3     1  UNL1        0.1339
     34 C         137.8330  142.7255  162.4639 C.3     1  UNL1        0.4002
     35 F         137.9172  141.4165  161.7363 F       1  UNL1       -0.1700
     36 F         138.6904  143.3652  161.4124 F       1  UNL1       -0.1700
     37 F         136.9755  142.0858  163.5154 F       1  UNL1       -0.1700
     38 C         139.9085  141.6608  166.7031 C.3     1  UNL1        0.0492
     39 C         140.2930  141.4913  168.1431 C.ar    1  UNL1       -0.0202
     40 C         139.8886  140.2529  168.8866 C.ar    1  UNL1       -0.0042
     41 C         140.2731  140.0834  170.3265 C.ar    1  UNL1       -0.0003
     42 C         141.0619  141.1524  171.0230 C.ar    1  UNL1       -0.0000
     43 C         141.4663  142.3908  170.2795 C.ar    1  UNL1       -0.0003
     44 C         141.0818  142.5603  168.8396 C.ar    1  UNL1       -0.0042
@<TRIPOS>BOND
     1    10    11    1
     2    11    12    1
     3    11     9    1
     4     9     2    1
     5     2     3   ar
     6     3     4   ar
     7     4     1    1
     8     1    38    1
     9    38    39    1
    10    39    40   ar
    11    40    41   ar
    12    41    42   ar
    13    42    43   ar
    14    43    44   ar
    15     1    27    1
    16    27    29    1
    17    29    30    1
    18    30    31    1
    19    30    33    1
    20    33    34    1
    21    34    35    1
    22    34    36    1
    23    34    37    1
    24     1    13    1
    25    13    14   ar
    26    14    15   ar
    27    15    16    1
    28    15    17   ar
    29    17    18   ar
    30    18    20    1
    31    20    21    1
    32    21    22    1
    33    21    23    1
    34    21    24    1
    35    24    25    1
    36    24    26    1
    37    18    19   ar
    38     4     5   ar
    39     5     6   ar
    40     6     7   ar
    41     7     8    1
    42     7     2   ar
    43    44    39   ar
    44    19    13   ar
    45    27    28    1
    46    31    32    1
@<TRIPOS>MOLECULE
*****
 44 46 0 0 0
SMALL
GASTEIGER

@<TRIPOS>ATOM
      1 C         140.8090  142.0820  165.3188 C.3     1  UNL1        0.0847
      2 C         143.0672  142.3107  162.0633 C.ar    1  UNL1        0.1653
      3 C         141.9815  141.8887  163.0084 C.ar    1  UNL1        0.0365
      4 C         141.8947  142.5040  164.3736 C.ar    1  UNL1       -0.0022
      5 C         142.8934  143.5413  164.7937 C.ar    1  UNL1       -0.0002
      6 C         143.9791  143.9633  163.8486 C.ar    1  UNL1        0.0325
      7 C         144.0660  143.3480  162.4834 C.ar    1  UNL1        0.1738
      8 F         145.1517  143.7700  161.5382 F       1  UNL1       -0.2010
      9 O         143.1541  141.6954  160.6980 O.3     1  UNL1       -0.4769
     10 C         144.0670  139.4862  161.7158 C.3     1  UNL1        0.0472
     11 C         143.5043  140.2443  160.5502 C.3     1  UNL1        0.1662
     12 C         143.2917  139.5515  159.2369 C.3     1  UNL1        0.0472
     13 C         141.3344  140.6773  165.2952 C.ar    1  UNL1       -0.0001
     14 C         142.5072  140.3007  166.1512 C.ar    1  UNL1        0.0271
     15 C         143.0326  138.8959  166.1276 C.ar    1  UNL1        0.1429
     16 F         144.1535  138.1907  166.8319 F       1  UNL1       -0.2041
     17 C         142.3852  137.8677  165.2480 C.ar    1  UNL1        0.0667
     18 C         141.2124  138.2443  164.3921 C.ar    1  UNL1        0.1461
     19 C         140.6870  139.6490  164.4156 C.ar    1  UNL1        0.0345
     20 O         140.5650  137.2160  163.5125 O.3     1  UNL1       -0.4263
     21 C         139.6532  137.6460  162.4018 C.3     1  UNL1        0.4723
     22 F         140.8437  137.9320  161.5353 F       1  UNL1       -0.1579
     23 F         138.4627  137.3600  163.2684 F       1  UNL1       -0.1579
     24 C         138.7415  138.0761  161.2911 C.3     1  UNL1        0.4202
     25 F         139.2614  138.1682  159.8871 F       1  UNL1       -0.1876
     26 F         137.3097  138.4140  161.5843 F       1  UNL1       -0.1876
     27 N         140.2836  143.4868  165.3423 N.3     1  UNL1       -0.2909
     28 H         140.9363  144.0544  164.8018 H       1  UNL1        0.1238
     29 C         138.9114  143.7833  164.8138 C.3     1  UNL1        0.0989
     30 C         138.7500  144.5332  163.5248 C.3     1  UNL1        0.1347
     31 O         137.4351  144.5105  162.8034 O.3     1  UNL1       -0.3827
     32 H         137.5009  145.0415  161.9944 H       1  UNL1        0.2104
     33 C         139.9037  145.3058  162.9571 C.3     1  UNL1        0.1339
     34 C         139.9722  145.5769  161.4834 C.3     1  UNL1        0.4002
     35 F         140.0406  145.8480  160.0097 F       1  UNL1       -0.1700
     36 F         139.5859  147.0054  161.7282 F       1  UNL1       -0.1700
     37 F         140.3585  144.1483  161.2385 F       1  UNL1       -0.1700
     38 C         139.7233  141.6601  166.2639 C.3     1  UNL1        0.0492
     39 C         139.9975  141.5879  167.7369 C.ar    1  UNL1       -0.0202
     40 C         140.6470  142.7449  168.4365 C.ar    1  UNL1       -0.0042
     41 C         140.9211  142.6727  169.9094 C.ar    1  UNL1       -0.0003
     42 C         140.5457  141.4434  170.6828 C.ar    1  UNL1       -0.0000
     43 C         139.8963  140.2864  169.9832 C.ar    1  UNL1       -0.0003
     44 C         139.6221  140.3587  168.5102 C.ar    1  UNL1       -0.0042
@<TRIPOS>BOND
     1    10    11    1
     2    11    12    1
     3    11     9    1
     4     9     2    1
     5     2     3   ar
     6     3     4   ar
     7     4     1    1
     8     1    38    1
     9    38    39    1
    10    39    40   ar
    11    40    41   ar
    12    41    42   ar
    13    42    43   ar
    14    43    44   ar
    15     1    27    1
    16    27    29    1
    17    29    30    1
    18    30    31    1
    19    30    33    1
    20    33    34    1
    21    34    35    1
    22    34    36    1
    23    34    37    1
    24     1    13    1
    25    13    14   ar
    26    14    15   ar
    27    15    16    1
    28    15    17   ar
    29    17    18   ar
    30    18    20    1
    31    20    21    1
    32    21    22    1
    33    21    23    1
    34    21    24    1
    35    24    25    1
    36    24    26    1
    37    18    19   ar
    38     4     5   ar
    39     5     6   ar
    40     6     7   ar
    41     7     8    1
    42     7     2   ar
    43    44    39   ar
    44    19    13   ar
    45    27    28    1
    46    31    32    1
@<TRIPOS>MOLECULE
*****
 44 46 0 0 0
SMALL
GASTEIGER

@<TRIPOS>ATOM
      1 C         140.8469  141.4737  165.4893 C.3     1  UNL1        0.0847
      2 C         139.4252  139.5009  162.3530 C.ar    1  UNL1        0.1653
      3 C         140.1665  140.5153  163.1723 C.ar    1  UNL1        0.0365
      4 C         140.1055  140.4592  164.6699 C.ar    1  UNL1       -0.0022
      5 C         139.3032  139.3887  165.3483 C.ar    1  UNL1       -0.0002
      6 C         138.5618  138.3743  164.5290 C.ar    1  UNL1        0.0325
      7 C         138.6228  138.4304  163.0313 C.ar    1  UNL1        0.1738
      8 F         137.8815  137.4159  162.2119 F       1  UNL1       -0.2010
      9 O         139.4862  139.5570  160.8552 O.3     1  UNL1       -0.4769
     10 C         141.7326  138.3210  160.4359 C.3     1  UNL1        0.0472
     11 C         140.8097  139.4695  160.1547 C.3     1  UNL1        0.1662
     12 C         141.2102  140.5306  159.1730 C.3     1  UNL1        0.0472
     13 C         142.1207  140.7087  165.2840 C.ar    1  UNL1       -0.0001
     14 C         142.4136  139.5006  166.1235 C.ar    1  UNL1        0.0271
     15 C         143.6875  138.7356  165.9182 C.ar    1  UNL1        0.1429
     16 F         144.2867  137.5185  166.5581 F       1  UNL1       -0.2041
     17 C         144.6683  139.1787  164.8734 C.ar    1  UNL1        0.0667
     18 C         144.3754  140.3868  164.0339 C.ar    1  UNL1        0.1461
     19 C         143.1016  141.1518  164.2392 C.ar    1  UNL1        0.0345
     20 O         145.3563  140.8298  162.9891 O.3     1  UNL1       -0.4263
     21 C         144.8756  141.5631  161.7720 C.3     1  UNL1        0.4723
     22 F         145.2968  142.8637  162.3894 F       1  UNL1       -0.1579
     23 F         144.4545  140.2625  161.1547 F       1  UNL1       -0.1579
     24 C         144.3950  142.2964  160.5550 C.3     1  UNL1        0.4202
     25 F         143.6173  143.5703  160.7053 F       1  UNL1       -0.1876
     26 F         144.6920  141.7559  159.1876 F       1  UNL1       -0.1876
     27 N         139.5731  142.2387  165.6946 N.3     1  UNL1       -0.2909
     28 H         139.2791  142.0684  166.6563 H       1  UNL1        0.1238
     29 C         139.5496  143.7247  165.4913 C.3     1  UNL1        0.0989
     30 C         139.0994  144.2952  164.1792 C.3     1  UNL1        0.1347
     31 O         137.6574  144.2033  163.7766 O.3     1  UNL1       -0.3827
     32 H         137.5372  144.6175  162.9077 H       1  UNL1        0.2104
     33 C         140.0913  144.9576  163.2695 C.3     1  UNL1        0.1339
     34 C         141.5493  144.6225  163.3786 C.3     1  UNL1        0.4002
     35 F         143.0073  144.2875  163.4876 F       1  UNL1       -0.1700
     36 F         141.7754  145.8683  164.1828 F       1  UNL1       -0.1700
     37 F         141.3232  143.3767  162.5742 F       1  UNL1       -0.1700
     38 C         141.5882  142.4881  166.3087 C.3     1  UNL1        0.0492
     39 C         141.8213  142.2460  167.7706 C.ar    1  UNL1       -0.0202
     40 C         143.2066  142.3494  168.3363 C.ar    1  UNL1       -0.0042
     41 C         143.4397  142.1073  169.7982 C.ar    1  UNL1       -0.0003
     42 C         142.2875  141.7618  170.6942 C.ar    1  UNL1       -0.0000
     43 C         140.9021  141.6585  170.1285 C.ar    1  UNL1       -0.0003
     44 C         140.6690  141.9006  168.6667 C.ar    1  UNL1       -0.0042
@<TRIPOS>BOND
     1    10    11    1
     2    11    12    1
     3    11     9    1
     4     9     2    1
     5     2     3   ar
     6     3     4   ar
     7     4     1    1
     8     1    38    1
     9    38    39    1
    10    39    40   ar
    11    40    41   ar
    12    41    42   ar
    13    42    43   ar
    14    43    44   ar
    15     1    27    1
    16    27    29    1
    17    29    30    1
    18    30    31    1
    19    30    33    1
    20    33    34    1
    21    34    35    1
    22    34    36    1
    23    34    37    1
    24     1    13    1
    25    13    14   ar
    26    14    15   ar
    27    15    16    1
    28    15    17   ar
    29    17    18   ar
    30    18    20    1
    31    20    21    1
    32    21    22    1
    33    21    23    1
    34    21    24    1
    35    24    25    1
    36    24    26    1
    37    18    19   ar
    38     4     5   ar
    39     5     6   ar
    40     6     7   ar
    41     7     8    1
    42     7     2   ar
    43    44    39   ar
    44    19    13   ar
    45    27    28    1
    46    31    32    1
