@<TRIPOS>MOLECULE
*****
 35 39 0 0 0
SMALL
GASTEIGER

@<TRIPOS>ATOM
      1 N         143.4055  137.8336  161.9668 N.pl3   1  UNL1       -0.2776
      2 H         144.0568  137.1356  162.2072 H       1  UNL1        0.1552
      3 C         143.3200  138.3242  160.5518 C.ar    1  UNL1        0.2209
      4 N         143.9598  139.6258  160.1694 N.ar    1  UNL1       -0.2111
      5 C         143.8743  140.1164  158.7545 C.ar    1  UNL1        0.1147
      6 C         143.1490  139.3053  157.7220 C.ar    1  UNL1        0.0946
      7 CL        143.0635  139.7959  156.3071 Cl      1  UNL1       -0.0790
      8 C         142.5091  138.0036  158.1045 C.ar    1  UNL1        0.0992
      9 N         142.5946  137.5131  159.5193 N.ar    1  UNL1       -0.2126
     10 C         141.7837  137.1925  157.0720 C.ar    1  UNL1        0.0572
     11 C         140.4407  137.5108  156.4846 C.ar    1  UNL1        0.1235
     12 N         140.1010  136.4358  155.4952 N.ar    1  UNL1       -0.1634
     13 N         141.2341  135.4532  155.4711 N.ar    1  UNL1       -0.2281
     14 C         141.4532  134.1929  154.6877 C.ar    1  UNL1        0.1004
     15 C         142.7123  133.4004  154.8787 C.ar    1  UNL1        0.0207
     16 C         143.7523  133.8681  155.8532 C.ar    1  UNL1        0.0031
     17 C         143.5332  135.1283  156.6367 C.ar    1  UNL1        0.0193
     18 C         142.2741  135.9208  156.4456 C.ar    1  UNL1        0.0858
     19 C         141.0167  138.1948  163.1106 C.ar    1  UNL1        0.2570
     20 N         140.5167  138.9491  164.3069 N.ar    1  UNL1       -0.1302
     21 N         141.6897  139.6270  164.9510 N.ar    1  UNL1       -0.2471
     22 C         142.9146  139.2916  164.1528 C.ar    1  UNL1        0.1145
     23 C         142.4987  138.4065  163.0153 C.ar    1  UNL1        0.1248
     24 C         141.6455  140.4888  166.1778 C.3     1  UNL1        0.1088
     25 C         140.5971  141.5535  166.3090 C.3     1  UNL1        0.0459
     26 C         140.5529  142.4155  167.5360 C.3     1  UNL1        0.0954
     27 N         141.5571  142.2125  168.6316 N.am    1  UNL1       -0.2794
     28 C         141.5129  143.0745  169.8585 C.2     1  UNL1        0.2261
     29 C         140.4645  144.1392  169.9897 C.3     1  UNL1        0.0948
     30 O         142.5171  142.8716  170.9541 O.2     1  UNL1       -0.2749
     31 C         142.6055  141.1478  168.5004 C.3     1  UNL1        0.0954
     32 C         142.6497  140.2860  167.2734 C.3     1  UNL1        0.0459
     33 O         140.1815  137.3731  162.1741 O.3     1  UNL1       -0.4584
     34 C         137.8254  138.3915  161.7711 C.3     1  UNL1        0.0512
     35 C         139.1941  138.0435  161.2654 C.3     1  UNL1        0.2073
@<TRIPOS>BOND
     1    34    35    1
     2    35    33    1
     3    33    19    1
     4    19    20   ar
     5    20    21   ar
     6    21    24    1
     7    24    25    1
     8    25    26    1
     9    26    27    1
    10    27    28   am
    11    28    29    1
    12    28    30    2
    13    27    31    1
    14    31    32    1
    15    21    22   ar
    16    22    23   ar
    17    23     1    1
    18     1     3    1
    19     3     4   ar
    20     4     5   ar
    21     5     6   ar
    22     6     7    1
    23     6     8   ar
    24     8    10    1
    25    10    11   ar
    26    11    12   ar
    27    12    13   ar
    28    13    14   ar
    29    14    15   ar
    30    15    16   ar
    31    16    17   ar
    32    17    18   ar
    33     8     9   ar
    34    23    19   ar
    35     9     3   ar
    36    32    24    1
    37    18    10   ar
    38    18    13   ar
    39     1     2    1
@<TRIPOS>MOLECULE
*****
 35 39 0 0 0
SMALL
GASTEIGER

@<TRIPOS>ATOM
      1 N         143.4394  143.8967  161.5068 N.pl3   1  UNL1       -0.2776
      2 H         144.1158  144.5913  161.3356 H       1  UNL1        0.1552
      3 C         143.7886  142.6987  162.3392 C.ar    1  UNL1        0.2209
      4 N         145.1435  142.5960  162.9744 N.ar    1  UNL1       -0.2111
      5 C         145.4927  141.3980  163.8068 C.ar    1  UNL1        0.1147
      6 C         144.4870  140.3028  164.0040 C.ar    1  UNL1        0.0946
      7 CL        144.8361  139.1048  164.8364 Cl      1  UNL1       -0.0790
      8 C         143.1319  140.4055  163.3686 C.ar    1  UNL1        0.0992
      9 N         142.7828  141.6035  162.5363 N.ar    1  UNL1       -0.2126
     10 C         142.1262  139.3102  163.5658 C.ar    1  UNL1        0.0572
     11 C         142.1617  137.9547  162.9244 C.ar    1  UNL1        0.1235
     12 N         140.9659  137.1849  163.4011 N.ar    1  UNL1       -0.1634
     13 N         140.1913  138.0647  164.3370 N.ar    1  UNL1       -0.2281
     14 C         138.9255  137.8393  165.1098 C.ar    1  UNL1        0.1004
     15 C         138.3769  138.9276  165.9844 C.ar    1  UNL1        0.0207
     16 C         139.0941  140.2411  166.0862 C.ar    1  UNL1        0.0031
     17 C         140.3598  140.4664  165.3134 C.ar    1  UNL1        0.0193
     18 C         140.9084  139.3782  164.4388 C.ar    1  UNL1        0.0858
     19 C         140.8782  144.6526  161.6241 C.ar    1  UNL1        0.2570
     20 N         139.7075  144.5817  160.6890 N.ar    1  UNL1       -0.1302
     21 N         140.1654  143.9218  159.4221 N.ar    1  UNL1       -0.2471
     22 C         141.6191  143.5849  159.5742 C.ar    1  UNL1        0.1145
     23 C         142.0597  144.0365  160.9351 C.ar    1  UNL1        0.1248
     24 C         139.3183  143.6471  158.2151 C.3     1  UNL1        0.1088
     25 C         139.5680  144.3933  156.9381 C.3     1  UNL1        0.0459
     26 C         138.7209  144.1186  155.7309 C.3     1  UNL1        0.0954
     27 N         137.6242  143.0976  155.8010 N.am    1  UNL1       -0.2794
     28 C         136.7771  142.8229  154.5939 C.2     1  UNL1        0.2261
     29 C         137.0267  143.5691  153.3169 C.3     1  UNL1        0.0948
     30 O         135.6803  141.8020  154.6639 O.2     1  UNL1       -0.2749
     31 C         137.3745  142.3514  157.0781 C.3     1  UNL1        0.0954
     32 C         138.2217  142.6262  158.2851 C.3     1  UNL1        0.0459
     33 O         140.8691  145.2369  163.0056 O.3     1  UNL1       -0.4584
     34 C         139.1319  144.6698  164.8524 C.3     1  UNL1        0.0512
     35 C         140.4408  144.3971  164.1723 C.3     1  UNL1        0.2073
@<TRIPOS>BOND
     1    34    35    1
     2    35    33    1
     3    33    19    1
     4    19    20   ar
     5    20    21   ar
     6    21    24    1
     7    24    25    1
     8    25    26    1
     9    26    27    1
    10    27    28   am
    11    28    29    1
    12    28    30    2
    13    27    31    1
    14    31    32    1
    15    21    22   ar
    16    22    23   ar
    17    23     1    1
    18     1     3    1
    19     3     4   ar
    20     4     5   ar
    21     5     6   ar
    22     6     7    1
    23     6     8   ar
    24     8    10    1
    25    10    11   ar
    26    11    12   ar
    27    12    13   ar
    28    13    14   ar
    29    14    15   ar
    30    15    16   ar
    31    16    17   ar
    32    17    18   ar
    33     8     9   ar
    34    23    19   ar
    35     9     3   ar
    36    32    24    1
    37    18    10   ar
    38    18    13   ar
    39     1     2    1
@<TRIPOS>MOLECULE
*****
 35 39 0 0 0
SMALL
GASTEIGER

@<TRIPOS>ATOM
      1 N         143.1109  143.8628  161.7441 N.pl3   1  UNL1       -0.2776
      2 H         143.7629  144.5753  161.5532 H       1  UNL1        0.1552
      3 C         141.9758  144.1189  162.6906 C.ar    1  UNL1        0.2209
      4 N         141.0281  145.2533  162.4357 N.ar    1  UNL1       -0.2111
      5 C         139.8930  145.5093  163.3822 C.ar    1  UNL1        0.1147
      6 C         139.7056  144.6310  164.5837 C.ar    1  UNL1        0.0946
      7 CL        138.5705  144.8871  165.5302 Cl      1  UNL1       -0.0790
      8 C         140.6534  143.4965  164.8386 C.ar    1  UNL1        0.0992
      9 N         141.7884  143.2405  163.8920 N.ar    1  UNL1       -0.2126
     10 C         140.4659  142.6182  166.0400 C.ar    1  UNL1        0.0572
     11 C         141.0798  142.8310  167.3920 C.ar    1  UNL1        0.1235
     12 N         140.6250  141.7172  168.2880 N.ar    1  UNL1       -0.1634
     13 N         139.7301  140.8161  167.4896 N.ar    1  UNL1       -0.2281
     14 C         138.9921  139.5605  167.8483 C.ar    1  UNL1        0.1004
     15 C         138.1558  138.8617  166.8176 C.ar    1  UNL1        0.0207
     16 C         138.0575  139.4185  165.4283 C.ar    1  UNL1        0.0031
     17 C         138.7955  140.6742  165.0696 C.ar    1  UNL1        0.0193
     18 C         139.6318  141.3730  166.1003 C.ar    1  UNL1        0.0858
     19 C         144.3698  141.5450  161.3105 C.ar    1  UNL1        0.2570
     20 N         144.1099  140.3407  160.4549 N.ar    1  UNL1       -0.1302
     21 N         142.8321  140.5725  159.7041 N.ar    1  UNL1       -0.2471
     22 C         142.3024  141.9201  160.0956 C.ar    1  UNL1        0.1145
     23 C         143.2527  142.5212  161.0884 C.ar    1  UNL1        0.1248
     24 C         142.1958  139.6233  158.7324 C.3     1  UNL1        0.1088
     25 C         140.8321  139.9169  158.1809 C.3     1  UNL1        0.0459
     26 C         140.1958  138.9677  157.2091 C.3     1  UNL1        0.0954
     27 N         140.9233  137.7251  156.7889 N.am    1  UNL1       -0.2794
     28 C         140.2870  136.7759  155.8172 C.2     1  UNL1        0.2261
     29 C         138.9233  137.0694  155.2657 C.3     1  UNL1        0.0948
     30 O         141.0144  135.5332  155.3969 O.2     1  UNL1       -0.2749
     31 C         142.2870  137.4315  157.3404 C.3     1  UNL1        0.0954
     32 C         142.9232  138.3807  158.3121 C.3     1  UNL1        0.0459
     33 O         145.5412  141.7391  162.2272 O.3     1  UNL1       -0.4584
     34 C         144.2304  140.5945  164.1564 C.3     1  UNL1        0.0512
     35 C         145.4968  141.1984  163.6255 C.3     1  UNL1        0.2073
@<TRIPOS>BOND
     1    34    35    1
     2    35    33    1
     3    33    19    1
     4    19    20   ar
     5    20    21   ar
     6    21    24    1
     7    24    25    1
     8    25    26    1
     9    26    27    1
    10    27    28   am
    11    28    29    1
    12    28    30    2
    13    27    31    1
    14    31    32    1
    15    21    22   ar
    16    22    23   ar
    17    23     1    1
    18     1     3    1
    19     3     4   ar
    20     4     5   ar
    21     5     6   ar
    22     6     7    1
    23     6     8   ar
    24     8    10    1
    25    10    11   ar
    26    11    12   ar
    27    12    13   ar
    28    13    14   ar
    29    14    15   ar
    30    15    16   ar
    31    16    17   ar
    32    17    18   ar
    33     8     9   ar
    34    23    19   ar
    35     9     3   ar
    36    32    24    1
    37    18    10   ar
    38    18    13   ar
    39     1     2    1
@<TRIPOS>MOLECULE
*****
 35 39 0 0 0
SMALL
GASTEIGER

@<TRIPOS>ATOM
      1 N         138.2866  139.2860  162.5052 N.pl3   1  UNL1       -0.2776
      2 H         137.5300  138.6590  162.4453 H       1  UNL1        0.1552
      3 C         139.4763  138.9470  163.3535 C.ar    1  UNL1        0.2209
      4 N         140.2066  137.6545  163.1388 N.ar    1  UNL1       -0.2111
      5 C         141.3963  137.3154  163.9871 C.ar    1  UNL1        0.1147
      6 C         141.8557  138.2688  165.0501 C.ar    1  UNL1        0.0946
      7 CL        143.0454  137.9298  165.8984 Cl      1  UNL1       -0.0790
      8 C         141.1253  139.5614  165.2648 C.ar    1  UNL1        0.0992
      9 N         139.9357  139.9004  164.4165 N.ar    1  UNL1       -0.2126
     10 C         141.5847  140.5148  166.3278 C.ar    1  UNL1        0.0572
     11 C         142.8018  141.3892  166.2616 C.ar    1  UNL1        0.1235
     12 N         142.8770  142.1760  167.5365 N.ar    1  UNL1       -0.1634
     13 N         141.7065  141.7880  168.3904 N.ar    1  UNL1       -0.2281
     14 C         141.2646  142.2369  169.7518 C.ar    1  UNL1        0.1004
     15 C         140.0242  141.6591  170.3661 C.ar    1  UNL1        0.0207
     16 C         139.2255  140.6324  169.6191 C.ar    1  UNL1        0.0031
     17 C         139.6673  140.1835  168.2577 C.ar    1  UNL1        0.0193
     18 C         140.9078  140.7613  167.6434 C.ar    1  UNL1        0.0858
     19 C         137.7319  141.8898  162.2655 C.ar    1  UNL1        0.2570
     20 N         137.8861  142.9114  161.1780 N.ar    1  UNL1       -0.1302
     21 N         138.4992  142.2334  159.9886 N.ar    1  UNL1       -0.2471
     22 C         138.7238  140.7928  160.3410 C.ar    1  UNL1        0.1145
     23 C         138.2496  140.5804  161.7482 C.ar    1  UNL1        0.1248
     24 C         138.8295  142.8821  158.6771 C.3     1  UNL1        0.1088
     25 C         139.8419  143.9876  158.6212 C.3     1  UNL1        0.0459
     26 C         140.1723  144.6363  157.3096 C.3     1  UNL1        0.0954
     27 N         139.4903  144.1795  156.0542 N.am    1  UNL1       -0.2794
     28 C         139.8207  144.8283  154.7426 C.2     1  UNL1        0.2261
     29 C         140.8330  145.9338  154.6867 C.3     1  UNL1        0.0948
     30 O         139.1388  144.3716  153.4871 O.2     1  UNL1       -0.2749
     31 C         138.4780  143.0741  156.1101 C.3     1  UNL1        0.0954
     32 C         138.1476  142.4254  157.4217 C.3     1  UNL1        0.0459
     33 O         137.1603  142.1346  163.6305 O.3     1  UNL1       -0.4584
     34 C         138.0991  144.3699  164.5644 C.3     1  UNL1        0.0512
     35 C         137.9619  142.8790  164.6568 C.3     1  UNL1        0.2073
@<TRIPOS>BOND
     1    34    35    1
     2    35    33    1
     3    33    19    1
     4    19    20   ar
     5    20    21   ar
     6    21    24    1
     7    24    25    1
     8    25    26    1
     9    26    27    1
    10    27    28   am
    11    28    29    1
    12    28    30    2
    13    27    31    1
    14    31    32    1
    15    21    22   ar
    16    22    23   ar
    17    23     1    1
    18     1     3    1
    19     3     4   ar
    20     4     5   ar
    21     5     6   ar
    22     6     7    1
    23     6     8   ar
    24     8    10    1
    25    10    11   ar
    26    11    12   ar
    27    12    13   ar
    28    13    14   ar
    29    14    15   ar
    30    15    16   ar
    31    16    17   ar
    32    17    18   ar
    33     8     9   ar
    34    23    19   ar
    35     9     3   ar
    36    32    24    1
    37    18    10   ar
    38    18    13   ar
    39     1     2    1
@<TRIPOS>MOLECULE
*****
 35 39 0 0 0
SMALL
GASTEIGER

@<TRIPOS>ATOM
      1 N         137.7288  141.0376  161.0802 N.pl3   1  UNL1       -0.2776
      2 H         136.7630  140.9204  160.9298 H       1  UNL1        0.1552
      3 C         138.4664  140.0964  161.9859 C.ar    1  UNL1        0.2209
      4 N         139.4209  139.0937  161.4086 N.ar    1  UNL1       -0.2111
      5 C         140.1585  138.1526  162.3143 C.ar    1  UNL1        0.1147
      6 C         139.9415  138.2142  163.7973 C.ar    1  UNL1        0.0946
      7 CL        140.6791  137.2731  164.7030 Cl      1  UNL1       -0.0790
      8 C         138.9869  139.2171  164.3746 C.ar    1  UNL1        0.0992
      9 N         138.2494  140.1581  163.4688 N.ar    1  UNL1       -0.2126
     10 C         138.7699  139.2787  165.8575 C.ar    1  UNL1        0.0572
     11 C         137.8105  138.4354  166.6440 C.ar    1  UNL1        0.1235
     12 N         137.9218  138.8300  168.0868 N.ar    1  UNL1       -0.1634
     13 N         138.9500  139.9171  168.1921 N.ar    1  UNL1       -0.2281
     14 C         139.4767  140.6903  169.3646 C.ar    1  UNL1        0.1004
     15 C         140.5275  141.7409  169.1592 C.ar    1  UNL1        0.0207
     16 C         141.0516  142.0183  167.7814 C.ar    1  UNL1        0.0031
     17 C         140.5249  141.2450  166.6089 C.ar    1  UNL1        0.0193
     18 C         139.4741  140.1945  166.8143 C.ar    1  UNL1        0.0858
     19 C         139.1445  143.3049  161.0877 C.ar    1  UNL1        0.2570
     20 N         139.7470  144.1827  160.0311 N.ar    1  UNL1       -0.1302
     21 N         139.4377  143.5773  158.6938 N.ar    1  UNL1       -0.2471
     22 C         138.6441  142.3255  158.9241 C.ar    1  UNL1        0.1145
     23 C         138.4628  142.1571  160.4036 C.ar    1  UNL1        0.1248
     24 C         139.8497  144.1273  157.3605 C.3     1  UNL1        0.1088
     25 C         139.7818  145.6038  157.1048 C.3     1  UNL1        0.0459
     26 C         140.1938  146.1538  155.7715 C.3     1  UNL1        0.0954
     27 N         140.6738  145.2273  154.6939 N.am    1  UNL1       -0.2794
     28 C         141.0858  145.7773  153.3605 C.2     1  UNL1        0.2261
     29 C         141.0179  147.2538  153.1049 C.3     1  UNL1        0.0948
     30 O         141.5658  144.8508  152.2829 O.2     1  UNL1       -0.2749
     31 C         140.7418  143.7508  154.9496 C.3     1  UNL1        0.0954
     32 C         140.3297  143.2009  156.2830 C.3     1  UNL1        0.0459
     33 O         139.2118  143.5346  162.5685 O.3     1  UNL1       -0.4584
     34 C         138.0712  144.2619  164.7866 C.3     1  UNL1        0.0512
     35 C         137.9990  144.0152  163.3088 C.3     1  UNL1        0.2073
@<TRIPOS>BOND
     1    34    35    1
     2    35    33    1
     3    33    19    1
     4    19    20   ar
     5    20    21   ar
     6    21    24    1
     7    24    25    1
     8    25    26    1
     9    26    27    1
    10    27    28   am
    11    28    29    1
    12    28    30    2
    13    27    31    1
    14    31    32    1
    15    21    22   ar
    16    22    23   ar
    17    23     1    1
    18     1     3    1
    19     3     4   ar
    20     4     5   ar
    21     5     6   ar
    22     6     7    1
    23     6     8   ar
    24     8    10    1
    25    10    11   ar
    26    11    12   ar
    27    12    13   ar
    28    13    14   ar
    29    14    15   ar
    30    15    16   ar
    31    16    17   ar
    32    17    18   ar
    33     8     9   ar
    34    23    19   ar
    35     9     3   ar
    36    32    24    1
    37    18    10   ar
    38    18    13   ar
    39     1     2    1
@<TRIPOS>MOLECULE
*****
 35 39 0 0 0
SMALL
GASTEIGER

@<TRIPOS>ATOM
      1 N         141.1259  145.4971  161.9427 N.pl3   1  UNL1       -0.2776
      2 H         141.2456  146.4543  162.1395 H       1  UNL1        0.1552
      3 C         141.4143  144.9725  160.5674 C.ar    1  UNL1        0.2209
      4 N         142.6073  144.0934  160.3349 N.ar    1  UNL1       -0.2111
      5 C         142.8957  143.5688  158.9596 C.ar    1  UNL1        0.1147
      6 C         141.9911  143.9232  157.8167 C.ar    1  UNL1        0.0946
      7 CL        142.2795  143.3985  156.4414 Cl      1  UNL1       -0.0790
      8 C         140.7981  144.8023  158.0492 C.ar    1  UNL1        0.0992
      9 N         140.5097  145.3269  159.4245 N.ar    1  UNL1       -0.2126
     10 C         139.8935  145.1567  156.9063 C.ar    1  UNL1        0.0572
     11 C         139.9272  146.4326  156.1182 C.ar    1  UNL1        0.1235
     12 N         138.8510  146.3619  155.0757 N.ar    1  UNL1       -0.1634
     13 N         138.1522  145.0424  155.2195 N.ar    1  UNL1       -0.2281
     14 C         137.0125  144.4229  154.4664 C.ar    1  UNL1        0.1004
     15 C         136.5171  143.0586  154.8447 C.ar    1  UNL1        0.0207
     16 C         137.1614  142.3137  155.9761 C.ar    1  UNL1        0.0031
     17 C         138.3011  142.9332  156.7292 C.ar    1  UNL1        0.0193
     18 C         138.7966  144.2976  156.3509 C.ar    1  UNL1        0.0858
     19 C         139.3830  143.7687  163.0010 C.ar    1  UNL1        0.2570
     20 N         139.3154  142.9747  164.2718 N.ar    1  UNL1       -0.1302
     21 N         140.5457  143.2788  165.0744 N.ar    1  UNL1       -0.2471
     22 C         141.3736  144.2606  164.2997 C.ar    1  UNL1        0.1145
     23 C         140.6551  144.5635  163.0182 C.ar    1  UNL1        0.1248
     24 C         140.8879  142.7021  166.4162 C.3     1  UNL1        0.1088
     25 C         141.9298  141.6288  166.5276 C.3     1  UNL1        0.0459
     26 C         142.2720  141.0521  167.8695 C.3     1  UNL1        0.0954
     27 N         141.5722  141.5489  169.0997 N.am    1  UNL1       -0.2794
     28 C         141.9145  140.9722  170.4416 C.2     1  UNL1        0.2261
     29 C         142.9564  139.8989  170.5530 C.3     1  UNL1        0.0948
     30 O         141.2147  141.4689  171.6719 O.2     1  UNL1       -0.2749
     31 C         140.5303  142.6222  168.9883 C.3     1  UNL1        0.0954
     32 C         140.1882  143.1988  167.6465 C.3     1  UNL1        0.0459
     33 O         138.3585  143.7681  161.9054 O.3     1  UNL1       -0.4584
     34 C         139.4990  141.9117  160.4900 C.3     1  UNL1        0.0512
     35 C         138.2554  142.5955  160.9758 C.3     1  UNL1        0.2073
@<TRIPOS>BOND
     1    34    35    1
     2    35    33    1
     3    33    19    1
     4    19    20   ar
     5    20    21   ar
     6    21    24    1
     7    24    25    1
     8    25    26    1
     9    26    27    1
    10    27    28   am
    11    28    29    1
    12    28    30    2
    13    27    31    1
    14    31    32    1
    15    21    22   ar
    16    22    23   ar
    17    23     1    1
    18     1     3    1
    19     3     4   ar
    20     4     5   ar
    21     5     6   ar
    22     6     7    1
    23     6     8   ar
    24     8    10    1
    25    10    11   ar
    26    11    12   ar
    27    12    13   ar
    28    13    14   ar
    29    14    15   ar
    30    15    16   ar
    31    16    17   ar
    32    17    18   ar
    33     8     9   ar
    34    23    19   ar
    35     9     3   ar
    36    32    24    1
    37    18    10   ar
    38    18    13   ar
    39     1     2    1
@<TRIPOS>MOLECULE
*****
 35 39 0 0 0
SMALL
GASTEIGER

@<TRIPOS>ATOM
      1 N         141.6195  137.6940  162.1039 N.pl3   1  UNL1       -0.2776
      2 H         141.8676  136.7425  162.0546 H       1  UNL1        0.1552
      3 C         141.8990  138.6030  160.9440 C.ar    1  UNL1        0.2209
      4 N         142.8326  138.1641  159.8551 N.ar    1  UNL1       -0.2111
      5 C         143.1120  139.0731  158.6951 C.ar    1  UNL1        0.1147
      6 C         142.4579  140.4211  158.6241 C.ar    1  UNL1        0.0946
      7 CL        142.7373  141.3302  157.4641 Cl      1  UNL1       -0.0790
      8 C         141.5242  140.8601  159.7130 C.ar    1  UNL1        0.0992
      9 N         141.2448  139.9510  160.8729 N.ar    1  UNL1       -0.2126
     10 C         140.8701  142.2081  159.6420 C.ar    1  UNL1        0.0572
     11 C         140.0440  142.7282  158.5031 C.ar    1  UNL1        0.1235
     12 N         139.5905  144.1142  158.8545 N.ar    1  UNL1       -0.1634
     13 N         140.1364  144.4505  160.2106 N.ar    1  UNL1       -0.2281
     14 C         140.0155  145.6773  161.0652 C.ar    1  UNL1        0.1004
     15 C         140.6854  145.7261  162.4064 C.ar    1  UNL1        0.0207
     16 C         141.4762  144.5481  162.8931 C.ar    1  UNL1        0.0031
     17 C         141.5971  143.3213  162.0385 C.ar    1  UNL1        0.0193
     18 C         140.9272  143.2725  160.6973 C.ar    1  UNL1        0.0858
     19 C         139.5046  138.1314  163.6790 C.ar    1  UNL1        0.2570
     20 N         139.2883  138.8061  165.0011 N.ar    1  UNL1       -0.1302
     21 N         140.6120  139.3262  165.4783 N.ar    1  UNL1       -0.2471
     22 C         141.6463  138.9729  164.4511 C.ar    1  UNL1        0.1145
     23 C         140.9620  138.2344  163.3390 C.ar    1  UNL1        0.1248
     24 C         140.8580  140.0691  166.7579 C.3     1  UNL1        0.1088
     25 C         142.0831  140.9218  166.9064 C.3     1  UNL1        0.0459
     26 C         142.3292  141.6648  168.1861 C.3     1  UNL1        0.0954
     27 N         141.3501  141.5549  169.3172 N.am    1  UNL1       -0.2794
     28 C         141.5962  142.2979  170.5969 C.2     1  UNL1        0.2261
     29 C         142.8212  143.1506  170.7454 C.3     1  UNL1        0.0948
     30 O         140.6172  142.1880  171.7281 O.2     1  UNL1       -0.2749
     31 C         140.1250  140.7022  169.1687 C.3     1  UNL1        0.0954
     32 C         139.8791  139.9593  167.8890 C.3     1  UNL1        0.0459
     33 O         138.4490  137.4699  162.8436 O.3     1  UNL1       -0.4584
     34 C         137.8458  139.7092  161.6724 C.3     1  UNL1        0.0512
     35 C         137.8284  138.2094  161.6957 C.3     1  UNL1        0.2073
@<TRIPOS>BOND
     1    34    35    1
     2    35    33    1
     3    33    19    1
     4    19    20   ar
     5    20    21   ar
     6    21    24    1
     7    24    25    1
     8    25    26    1
     9    26    27    1
    10    27    28   am
    11    28    29    1
    12    28    30    2
    13    27    31    1
    14    31    32    1
    15    21    22   ar
    16    22    23   ar
    17    23     1    1
    18     1     3    1
    19     3     4   ar
    20     4     5   ar
    21     5     6   ar
    22     6     7    1
    23     6     8   ar
    24     8    10    1
    25    10    11   ar
    26    11    12   ar
    27    12    13   ar
    28    13    14   ar
    29    14    15   ar
    30    15    16   ar
    31    16    17   ar
    32    17    18   ar
    33     8     9   ar
    34    23    19   ar
    35     9     3   ar
    36    32    24    1
    37    18    10   ar
    38    18    13   ar
    39     1     2    1
@<TRIPOS>MOLECULE
*****
 35 39 0 0 0
SMALL
GASTEIGER

@<TRIPOS>ATOM
      1 N         144.0902  143.3110  163.2240 N.pl3   1  UNL1       -0.2776
      2 H         144.9206  143.8319  163.3161 H       1  UNL1        0.1552
      3 C         143.9465  141.9972  163.9333 C.ar    1  UNL1        0.2209
      4 N         144.9239  140.8907  163.6679 N.ar    1  UNL1       -0.2111
      5 C         144.7801  139.5769  164.3772 C.ar    1  UNL1        0.1147
      6 C         143.6590  139.3694  165.3519 C.ar    1  UNL1        0.0946
      7 CL        143.5152  138.0556  166.0611 Cl      1  UNL1       -0.0790
      8 C         142.6815  140.4760  165.6173 C.ar    1  UNL1        0.0992
      9 N         142.8253  141.7898  164.9080 N.ar    1  UNL1       -0.2126
     10 C         141.5604  140.2686  166.5920 C.ar    1  UNL1        0.0572
     11 C         140.1685  139.8237  166.2531 C.ar    1  UNL1        0.1235
     12 N         139.3821  139.7498  167.5283 N.ar    1  UNL1       -0.1634
     13 N         140.2880  140.1490  168.6553 N.ar    1  UNL1       -0.2281
     14 C         140.0610  140.2619  170.1337 C.ar    1  UNL1        0.1004
     15 C         141.1802  140.6955  171.0334 C.ar    1  UNL1        0.0207
     16 C         142.5264  141.0161  170.4547 C.ar    1  UNL1        0.0031
     17 C         142.7535  140.9032  168.9763 C.ar    1  UNL1        0.0193
     18 C         141.6343  140.4696  168.0766 C.ar    1  UNL1        0.0858
     19 C         141.7051  144.4660  162.8745 C.ar    1  UNL1        0.2570
     20 N         140.8696  144.8353  161.6847 N.ar    1  UNL1       -0.1302
     21 N         141.6171  144.4289  160.4492 N.ar    1  UNL1       -0.2471
     22 C         142.9145  143.8084  160.8755 C.ar    1  UNL1        0.1145
     23 C         142.9690  143.8313  162.3744 C.ar    1  UNL1        0.1248
     24 C         141.1492  144.6109  159.0357 C.3     1  UNL1        0.1088
     25 C         141.8320  145.6032  158.1417 C.3     1  UNL1        0.0459
     26 C         141.3641  145.7853  156.7281 C.3     1  UNL1        0.0954
     27 N         140.2136  144.9751  156.2088 N.am    1  UNL1       -0.2794
     28 C         139.7457  145.1572  154.7952 C.2     1  UNL1        0.2261
     29 C         140.4284  146.1494  153.9012 C.3     1  UNL1        0.0948
     30 O         138.5951  144.3470  154.2758 O.2     1  UNL1       -0.2749
     31 C         139.5308  143.9828  157.1028 C.3     1  UNL1        0.0954
     32 C         139.9987  143.8008  158.5163 C.3     1  UNL1        0.0459
     33 O         141.3408  144.6918  164.3119 O.3     1  UNL1       -0.4584
     34 C         138.8441  144.8202  165.0189 C.3     1  UNL1        0.0512
     35 C         140.1184  144.0399  164.8870 C.3     1  UNL1        0.2073
@<TRIPOS>BOND
     1    34    35    1
     2    35    33    1
     3    33    19    1
     4    19    20   ar
     5    20    21   ar
     6    21    24    1
     7    24    25    1
     8    25    26    1
     9    26    27    1
    10    27    28   am
    11    28    29    1
    12    28    30    2
    13    27    31    1
    14    31    32    1
    15    21    22   ar
    16    22    23   ar
    17    23     1    1
    18     1     3    1
    19     3     4   ar
    20     4     5   ar
    21     5     6   ar
    22     6     7    1
    23     6     8   ar
    24     8    10    1
    25    10    11   ar
    26    11    12   ar
    27    12    13   ar
    28    13    14   ar
    29    14    15   ar
    30    15    16   ar
    31    16    17   ar
    32    17    18   ar
    33     8     9   ar
    34    23    19   ar
    35     9     3   ar
    36    32    24    1
    37    18    10   ar
    38    18    13   ar
    39     1     2    1
@<TRIPOS>MOLECULE
*****
 35 39 0 0 0
SMALL
GASTEIGER

@<TRIPOS>ATOM
      1 N         138.5822  142.9978  160.1399 N.pl3   1  UNL1       -0.2776
      2 H         137.7428  143.1155  159.6393 H       1  UNL1        0.1552
      3 C         138.5683  142.3219  161.4790 C.ar    1  UNL1        0.2209
      4 N         137.3931  142.4958  162.3947 N.ar    1  UNL1       -0.2111
      5 C         137.3792  141.8199  163.7337 C.ar    1  UNL1        0.1147
      6 C         138.5405  140.9702  164.1570 C.ar    1  UNL1        0.0946
      7 CL        138.5266  140.2943  165.4960 Cl      1  UNL1       -0.0790
      8 C         139.7159  140.7963  163.2412 C.ar    1  UNL1        0.0992
      9 N         139.7297  141.4722  161.9023 N.ar    1  UNL1       -0.2126
     10 C         140.8772  139.9466  163.6646 C.ar    1  UNL1        0.0572
     11 C         140.8122  138.5044  164.0721 C.ar    1  UNL1        0.1235
     12 N         142.2023  138.0563  164.4141 N.ar    1  UNL1       -0.1634
     13 N         143.1263  139.2215  164.2179 N.ar    1  UNL1       -0.2281
     14 C         144.6076  139.3697  164.4013 C.ar    1  UNL1        0.1004
     15 C         145.2701  140.6861  164.1214 C.ar    1  UNL1        0.0207
     16 C         144.4512  141.8543  163.6582 C.ar    1  UNL1        0.0031
     17 C         142.9698  141.7062  163.4749 C.ar    1  UNL1        0.0193
     18 C         142.3074  140.3898  163.7547 C.ar    1  UNL1        0.0858
     19 C         140.4359  144.8769  159.7184 C.ar    1  UNL1        0.2570
     20 N         141.7415  144.9325  158.9820 N.ar    1  UNL1       -0.1302
     21 N         141.9876  143.5842  158.3722 N.ar    1  UNL1       -0.2471
     22 C         140.8341  142.6954  158.7317 C.ar    1  UNL1        0.1145
     23 C         139.8750  143.4942  159.5637 C.ar    1  UNL1        0.1248
     24 C         143.1781  143.1935  157.5476 C.3     1  UNL1        0.1088
     25 C         143.0954  143.2222  156.0502 C.3     1  UNL1        0.0459
     26 C         144.2860  142.8315  155.2256 C.3     1  UNL1        0.0954
     27 N         145.5592  142.4120  155.8986 N.am    1  UNL1       -0.2794
     28 C         146.7498  142.0212  155.0739 C.2     1  UNL1        0.2261
     29 C         146.6671  142.0500  153.5765 C.3     1  UNL1        0.0948
     30 O         148.0231  141.6018  155.7468 O.2     1  UNL1       -0.2749
     31 C         145.6420  142.3833  157.3960 C.3     1  UNL1        0.0954
     32 C         144.4514  142.7740  158.2205 C.3     1  UNL1        0.0459
     33 O         139.8024  146.0056  160.4763 O.3     1  UNL1       -0.4584
     34 C         140.9265  145.1734  162.6658 C.3     1  UNL1        0.0512
     35 C         139.9978  146.1161  161.9594 C.3     1  UNL1        0.2073
@<TRIPOS>BOND
     1    34    35    1
     2    35    33    1
     3    33    19    1
     4    19    20   ar
     5    20    21   ar
     6    21    24    1
     7    24    25    1
     8    25    26    1
     9    26    27    1
    10    27    28   am
    11    28    29    1
    12    28    30    2
    13    27    31    1
    14    31    32    1
    15    21    22   ar
    16    22    23   ar
    17    23     1    1
    18     1     3    1
    19     3     4   ar
    20     4     5   ar
    21     5     6   ar
    22     6     7    1
    23     6     8   ar
    24     8    10    1
    25    10    11   ar
    26    11    12   ar
    27    12    13   ar
    28    13    14   ar
    29    14    15   ar
    30    15    16   ar
    31    16    17   ar
    32    17    18   ar
    33     8     9   ar
    34    23    19   ar
    35     9     3   ar
    36    32    24    1
    37    18    10   ar
    38    18    13   ar
    39     1     2    1
