@<TRIPOS>MOLECULE
*****
 30 32 0 0 0
SMALL
GASTEIGER

@<TRIPOS>ATOM
      1 C         139.9197  139.6251  165.2639 C.ar    1  UNL1        0.0505
      2 C         138.6173  138.9694  165.6159 C.ar    1  UNL1        0.0170
      3 C         138.0999  139.0364  167.0223 C.ar    1  UNL1        0.0307
      4 C         138.8851  139.7590  168.0766 C.ar    1  UNL1        0.1402
      5 F         138.3677  139.8260  169.4830 F       1  UNL1       -0.2044
      6 C         140.1874  140.4146  167.7245 C.ar    1  UNL1        0.0555
      7 C         140.7047  140.3476  166.3181 C.ar    1  UNL1        0.0168
      8 C         140.9724  141.1372  168.7788 C.3     1  UNL1        0.2513
      9 C         140.2071  142.2856  168.1911 C.3     1  UNL1        0.0638
     10 N         141.4652  139.7379  169.0004 N.2     1  UNL1       -0.0663
     11 C         142.4772  139.4600  170.0722 C.2     1  UNL1        0.3195
     12 N         142.9700  138.0607  170.2938 N.pl3   1  UNL1       -0.2480
     13 C         142.9964  140.5815  170.9224 C.3     1  UNL1        0.2611
     14 O         142.5036  141.9808  170.7008 O.3     1  UNL1       -0.3108
     15 C         141.4916  142.2586  169.6290 C.3     1  UNL1        0.3281
     16 F         140.9989  143.6579  169.4074 F       1  UNL1       -0.1989
     17 H         142.6292  137.3247  169.7358 H       1  UNL1        0.2882
     18 H         143.6342  137.8783  170.9972 H       1  UNL1        0.2882
     19 C         141.2465  138.3767  163.4116 C.2     1  UNL1        0.2688
     20 O         141.5388  137.2622  164.3721 O.2     1  UNL1       -0.2681
     21 N         140.4370  139.5581  163.8575 N.am    1  UNL1       -0.2791
     22 H         140.2452  140.2896  163.2271 H       1  UNL1        0.1552
     23 C         142.7985  138.1758  159.1924 C.ar    1  UNL1        0.2449
     24 C         141.3371  138.4013  159.4441 C.ar    1  UNL1        0.1565
     25 N         140.8198  138.4682  160.8505 N.ar    1  UNL1       -0.2328
     26 C         141.7639  138.3097  162.0052 C.ar    1  UNL1        0.1541
     27 C         143.2253  138.0842  161.7536 C.ar    1  UNL1        0.1258
     28 N         143.7426  138.0172  160.3472 N.ar    1  UNL1       -0.2071
     29 C         142.7912  137.0672  156.8428 C.3     1  UNL1        0.2543
     30 O         143.3158  138.1088  157.7861 O.3     1  UNL1       -0.4551
@<TRIPOS>BOND
     1    29    30    1
     2    30    23    1
     3    23    24   ar
     4    24    25   ar
     5    25    26   ar
     6    26    19    1
     7    19    20    2
     8    19    21   am
     9    21     1    1
    10     1     2   ar
    11     2     3   ar
    12     3     4   ar
    13     4     5    1
    14     4     6   ar
    15     6     8    1
    16     8     9    1
    17     8    10    1
    18    10    11    2
    19    11    12    1
    20    11    13    1
    21    13    14    1
    22    14    15    1
    23    15    16    1
    24     6     7   ar
    25    26    27   ar
    26    27    28   ar
    27    28    23   ar
    28     7     1   ar
    29    15     8    1
    30    21    22    1
    31    12    17    1
    32    12    18    1
@<TRIPOS>MOLECULE
*****
 30 32 0 0 0
SMALL
GASTEIGER

@<TRIPOS>ATOM
      1 C         142.0407  140.7035  164.9081 C.ar    1  UNL1        0.0505
      2 C         143.0133  139.5622  164.8708 C.ar    1  UNL1        0.0170
      3 C         143.3378  138.8120  166.1286 C.ar    1  UNL1        0.0307
      4 C         142.6895  139.2031  167.4236 C.ar    1  UNL1        0.1402
      5 F         143.0140  138.4529  168.6813 F       1  UNL1       -0.2044
      6 C         141.7169  140.3444  167.4607 C.ar    1  UNL1        0.0555
      7 C         141.3925  141.0946  166.2030 C.ar    1  UNL1        0.0168
      8 C         141.0688  140.7355  168.7557 C.3     1  UNL1        0.2513
      9 C         139.9590  139.9358  168.1401 C.3     1  UNL1        0.0638
     10 N         142.4035  141.3994  168.9217 N.2     1  UNL1       -0.0663
     11 C         142.7048  142.1766  170.1687 C.2     1  UNL1        0.3195
     12 N         144.0396  142.8405  170.3347 N.pl3   1  UNL1       -0.2480
     13 C         141.6712  142.2900  171.2498 C.3     1  UNL1        0.2611
     14 O         140.3363  141.6261  171.0839 O.3     1  UNL1       -0.3108
     15 C         140.0352  140.8488  169.8368 C.3     1  UNL1        0.3281
     16 F         138.7004  140.1849  169.6709 F       1  UNL1       -0.1989
     17 H         144.7180  142.7661  169.6251 H       1  UNL1        0.2882
     18 H         144.2373  143.3506  171.1531 H       1  UNL1        0.2882
     19 C         142.3435  142.7916  163.3921 C.2     1  UNL1        0.2688
     20 O         143.2952  143.3792  164.3915 O.2     1  UNL1       -0.2681
     21 N         141.7162  141.4538  163.6503 N.am    1  UNL1       -0.2791
     22 H         141.0916  141.0681  162.9944 H       1  UNL1        0.1552
     23 C         141.3702  145.0422  159.6188 C.ar    1  UNL1        0.2449
     24 C         140.5404  145.2496  160.8510 C.ar    1  UNL1        0.1565
     25 N         140.8648  144.4994  162.1088 N.ar    1  UNL1       -0.2328
     26 C         142.0191  143.5418  162.1343 C.ar    1  UNL1        0.1541
     27 C         142.8489  143.3344  160.9021 C.ar    1  UNL1        0.1258
     28 N         142.5244  144.0846  159.6444 N.ar    1  UNL1       -0.2071
     29 C         142.0867  145.9513  157.2929 C.3     1  UNL1        0.2543
     30 O         141.0458  145.7925  158.3611 O.3     1  UNL1       -0.4551
@<TRIPOS>BOND
     1    29    30    1
     2    30    23    1
     3    23    24   ar
     4    24    25   ar
     5    25    26   ar
     6    26    19    1
     7    19    20    2
     8    19    21   am
     9    21     1    1
    10     1     2   ar
    11     2     3   ar
    12     3     4   ar
    13     4     5    1
    14     4     6   ar
    15     6     8    1
    16     8     9    1
    17     8    10    1
    18    10    11    2
    19    11    12    1
    20    11    13    1
    21    13    14    1
    22    14    15    1
    23    15    16    1
    24     6     7   ar
    25    26    27   ar
    26    27    28   ar
    27    28    23   ar
    28     7     1   ar
    29    15     8    1
    30    21    22    1
    31    12    17    1
    32    12    18    1
@<TRIPOS>MOLECULE
*****
 30 32 0 0 0
SMALL
GASTEIGER

@<TRIPOS>ATOM
      1 C         139.9873  141.2348  164.3467 C.ar    1  UNL1        0.0505
      2 C         138.6539  140.5501  164.4056 C.ar    1  UNL1        0.0170
      3 C         138.1970  139.9065  165.6812 C.ar    1  UNL1        0.0307
      4 C         139.0735  139.9476  166.8978 C.ar    1  UNL1        0.1402
      5 F         138.6167  139.3040  168.1734 F       1  UNL1       -0.2044
      6 C         140.4068  140.6323  166.8389 C.ar    1  UNL1        0.0555
      7 C         140.8637  141.2759  165.5633 C.ar    1  UNL1        0.0168
      8 C         141.2832  140.6734  168.0555 C.3     1  UNL1        0.2513
      9 C         141.7289  139.3721  167.4573 C.3     1  UNL1        0.0638
     10 N         140.5332  141.9605  168.2312 N.2     1  UNL1       -0.0663
     11 C         140.8144  142.8367  169.4158 C.2     1  UNL1        0.3195
     12 N         140.0643  144.1238  169.5915 N.pl3   1  UNL1       -0.2480
     13 C         141.8456  142.4258  170.4246 C.3     1  UNL1        0.2611
     14 O         142.5956  141.1387  170.2489 O.3     1  UNL1       -0.3108
     15 C         142.3144  140.2626  169.0643 C.3     1  UNL1        0.3281
     16 F         143.0645  138.9755  168.8886 F       1  UNL1       -0.1989
     17 H         139.3875  144.3935  168.9293 H       1  UNL1        0.2882
     18 H         140.2489  144.6989  170.3690 H       1  UNL1        0.2882
     19 C         140.2523  143.3515  162.8637 C.2     1  UNL1        0.2688
     20 O         139.6036  144.1810  163.9319 O.2     1  UNL1       -0.2681
     21 N         140.4441  141.8784  163.0711 N.am    1  UNL1       -0.2791
     22 H         140.8699  141.3339  162.3700 H       1  UNL1        0.1552
     23 C         141.6229  145.2823  159.0370 C.ar    1  UNL1        0.2449
     24 C         140.2324  145.5262  159.5440 C.ar    1  UNL1        0.1565
     25 N         139.7755  144.8826  160.8196 N.ar    1  UNL1       -0.2328
     26 C         140.7091  143.9951  161.5882 C.ar    1  UNL1        0.1541
     27 C         142.0996  143.7512  161.0812 C.ar    1  UNL1        0.1258
     28 N         142.5565  144.3948  159.8056 N.ar    1  UNL1       -0.2071
     29 C         141.1375  146.0409  156.6001 C.3     1  UNL1        0.2543
     30 O         142.0797  145.9259  157.7615 O.3     1  UNL1       -0.4551
@<TRIPOS>BOND
     1    29    30    1
     2    30    23    1
     3    23    24   ar
     4    24    25   ar
     5    25    26   ar
     6    26    19    1
     7    19    20    2
     8    19    21   am
     9    21     1    1
    10     1     2   ar
    11     2     3   ar
    12     3     4   ar
    13     4     5    1
    14     4     6   ar
    15     6     8    1
    16     8     9    1
    17     8    10    1
    18    10    11    2
    19    11    12    1
    20    11    13    1
    21    13    14    1
    22    14    15    1
    23    15    16    1
    24     6     7   ar
    25    26    27   ar
    26    27    28   ar
    27    28    23   ar
    28     7     1   ar
    29    15     8    1
    30    21    22    1
    31    12    17    1
    32    12    18    1
@<TRIPOS>MOLECULE
*****
 30 32 0 0 0
SMALL
GASTEIGER

@<TRIPOS>ATOM
      1 C         141.4502  141.2910  165.0317 C.ar    1  UNL1        0.0505
      2 C         141.9075  139.8840  164.7835 C.ar    1  UNL1        0.0170
      3 C         142.4156  139.0488  165.9211 C.ar    1  UNL1        0.0307
      4 C         142.4665  139.6205  167.3070 C.ar    1  UNL1        0.1402
      5 F         142.9746  138.7853  168.4446 F       1  UNL1       -0.2044
      6 C         142.0093  141.0273  167.5552 C.ar    1  UNL1        0.0555
      7 C         141.5011  141.8626  166.4176 C.ar    1  UNL1        0.0168
      8 C         142.0602  141.5990  168.9410 C.3     1  UNL1        0.2513
      9 C         143.3500  142.1323  168.3918 C.3     1  UNL1        0.0638
     10 N         140.7526  140.8671  169.0091 N.2     1  UNL1       -0.0663
     11 C         139.9439  140.8921  170.2722 C.2     1  UNL1        0.3195
     12 N         138.6363  140.1602  170.3402 N.pl3   1  UNL1       -0.2480
     13 C         140.4428  141.6489  171.4673 C.3     1  UNL1        0.2611
     14 O         141.7504  142.3808  171.3993 O.3     1  UNL1       -0.3108
     15 C         142.5590  142.3558  170.1362 C.3     1  UNL1        0.3281
     16 F         143.8666  143.0877  170.0682 F       1  UNL1       -0.1989
     17 H         138.3089  139.6634  169.5558 H       1  UNL1        0.2882
     18 H         138.1056  140.1766  171.1692 H       1  UNL1        0.2882
     19 C         141.9002  142.9361  163.0719 C.2     1  UNL1        0.2688
     20 O         143.3664  142.9108  163.3873 O.2     1  UNL1       -0.2681
     21 N         140.9421  142.1262  163.8941 N.am    1  UNL1       -0.2791
     22 H         139.9798  142.1428  163.6871 H       1  UNL1        0.1552
     23 C         140.3758  145.4418  159.6590 C.ar    1  UNL1        0.2449
     24 C         141.6596  144.6796  159.5149 C.ar    1  UNL1        0.1565
     25 N         142.1677  143.8443  160.6525 N.ar    1  UNL1       -0.2328
     26 C         141.3921  143.7713  161.9343 C.ar    1  UNL1        0.1541
     27 C         140.1083  144.5336  162.0784 C.ar    1  UNL1        0.1258
     28 N         139.6002  145.3688  160.9408 N.ar    1  UNL1       -0.2071
     29 C         140.2335  145.9243  157.1101 C.3     1  UNL1        0.2543
     30 O         139.8677  146.2770  158.5214 O.3     1  UNL1       -0.4551
@<TRIPOS>BOND
     1    29    30    1
     2    30    23    1
     3    23    24   ar
     4    24    25   ar
     5    25    26   ar
     6    26    19    1
     7    19    20    2
     8    19    21   am
     9    21     1    1
    10     1     2   ar
    11     2     3   ar
    12     3     4   ar
    13     4     5    1
    14     4     6   ar
    15     6     8    1
    16     8     9    1
    17     8    10    1
    18    10    11    2
    19    11    12    1
    20    11    13    1
    21    13    14    1
    22    14    15    1
    23    15    16    1
    24     6     7   ar
    25    26    27   ar
    26    27    28   ar
    27    28    23   ar
    28     7     1   ar
    29    15     8    1
    30    21    22    1
    31    12    17    1
    32    12    18    1
@<TRIPOS>MOLECULE
*****
 30 32 0 0 0
SMALL
GASTEIGER

@<TRIPOS>ATOM
      1 C         140.3633  141.5592  164.3973 C.ar    1  UNL1        0.0505
      2 C         139.2830  140.5192  164.3595 C.ar    1  UNL1        0.0170
      3 C         138.7773  139.9164  165.6365 C.ar    1  UNL1        0.0307
      4 C         139.3519  140.3536  166.9514 C.ar    1  UNL1        0.1402
      5 F         138.8462  139.7507  168.2284 F       1  UNL1       -0.2044
      6 C         140.4322  141.3935  166.9892 C.ar    1  UNL1        0.0555
      7 C         140.9379  141.9963  165.7121 C.ar    1  UNL1        0.0168
      8 C         141.0068  141.8306  168.3040 C.3     1  UNL1        0.2513
      9 C         140.2192  143.0553  167.9439 C.3     1  UNL1        0.0638
     10 N         141.5948  140.4540  168.2075 N.2     1  UNL1       -0.0663
     11 C         142.4839  139.9400  169.3008 C.2     1  UNL1        0.3195
     12 N         143.0719  138.5634  169.2043 N.pl3   1  UNL1       -0.2480
     13 C         142.7850  140.8024  170.4905 C.3     1  UNL1        0.2611
     14 O         142.1969  142.1790  170.5870 O.3     1  UNL1       -0.3108
     15 C         141.3079  142.6930  169.4937 C.3     1  UNL1        0.3281
     16 F         140.7198  144.0696  169.5902 F       1  UNL1       -0.1989
     17 H         142.8743  137.9973  168.4234 H       1  UNL1        0.2882
     18 H         143.6555  138.2260  169.9218 H       1  UNL1        0.2882
     19 C         140.1700  143.3465  162.5216 C.2     1  UNL1        0.2688
     20 O         138.9653  143.9281  163.2000 O.2     1  UNL1       -0.2681
     21 N         140.8691  142.1620  163.1203 N.am    1  UNL1       -0.2791
     22 H         141.6598  141.7803  162.6750 H       1  UNL1        0.1552
     23 C         141.6872  145.1550  158.6905 C.ar    1  UNL1        0.2449
     24 C         140.2975  145.4604  159.1652 C.ar    1  UNL1        0.1565
     25 N         139.7918  144.8575  160.4423 N.ar    1  UNL1       -0.2328
     26 C         140.6757  143.9493  161.2446 C.ar    1  UNL1        0.1541
     27 C         142.0654  143.6439  160.7698 C.ar    1  UNL1        0.1258
     28 N         142.5712  144.2467  159.4927 N.ar    1  UNL1       -0.2071
     29 C         142.0329  145.0166  156.1192 C.3     1  UNL1        0.2543
     30 O         142.1929  145.7578  157.4134 O.3     1  UNL1       -0.4551
@<TRIPOS>BOND
     1    29    30    1
     2    30    23    1
     3    23    24   ar
     4    24    25   ar
     5    25    26   ar
     6    26    19    1
     7    19    20    2
     8    19    21   am
     9    21     1    1
    10     1     2   ar
    11     2     3   ar
    12     3     4   ar
    13     4     5    1
    14     4     6   ar
    15     6     8    1
    16     8     9    1
    17     8    10    1
    18    10    11    2
    19    11    12    1
    20    11    13    1
    21    13    14    1
    22    14    15    1
    23    15    16    1
    24     6     7   ar
    25    26    27   ar
    26    27    28   ar
    27    28    23   ar
    28     7     1   ar
    29    15     8    1
    30    21    22    1
    31    12    17    1
    32    12    18    1
@<TRIPOS>MOLECULE
*****
 30 32 0 0 0
SMALL
GASTEIGER

@<TRIPOS>ATOM
      1 C         140.3584  144.7063  157.3741 C.ar    1  UNL1        0.0505
      2 C         139.3373  143.7370  156.8566 C.ar    1  UNL1        0.0170
      3 C         138.2917  144.1968  155.8843 C.ar    1  UNL1        0.0307
      4 C         138.2672  145.6261  155.4296 C.ar    1  UNL1        0.1402
      5 F         137.2216  146.0860  154.4573 F       1  UNL1       -0.2044
      6 C         139.2883  146.5954  155.9471 C.ar    1  UNL1        0.0555
      7 C         140.3339  146.1355  156.9193 C.ar    1  UNL1        0.0168
      8 C         139.2638  148.0245  155.4923 C.3     1  UNL1        0.2513
      9 C         139.8515  147.3740  154.2752 C.3     1  UNL1        0.0638
     10 N         138.6846  148.1789  156.8673 N.2     1  UNL1       -0.0663
     11 C         138.2850  149.5363  157.3648 C.2     1  UNL1        0.3195
     12 N         137.7057  149.6905  158.7399 N.pl3   1  UNL1       -0.2480
     13 C         138.4646  150.7395  156.4874 C.3     1  UNL1        0.2611
     14 O         139.0438  150.5853  155.1123 O.3     1  UNL1       -0.3108
     15 C         139.4434  149.2278  154.6148 C.3     1  UNL1        0.3281
     16 F         140.0227  149.0735  153.2398 F       1  UNL1       -0.1989
     17 H         137.5878  148.9008  159.3158 H       1  UNL1        0.2882
     18 H         137.4434  150.5815  159.0664 H       1  UNL1        0.2882
     19 C         141.1753  144.3979  159.8210 C.2     1  UNL1        0.2688
     20 O         139.9010  145.0092  160.3234 O.2     1  UNL1       -0.2681
     21 N         141.4040  144.2464  158.3463 N.am    1  UNL1       -0.2791
     22 H         142.2403  143.8452  158.0165 H       1  UNL1        0.1552
     23 C         144.3120  143.0182  162.7377 C.ar    1  UNL1        0.2449
     24 C         144.3958  142.6093  161.2970 C.ar    1  UNL1        0.1565
     25 N         143.3503  143.0692  160.3248 N.ar    1  UNL1       -0.2328
     26 C         142.2208  143.9380  160.7932 C.ar    1  UNL1        0.1541
     27 C         142.1370  144.3469  162.2340 C.ar    1  UNL1        0.1258
     28 N         143.1826  143.8870  163.2062 N.ar    1  UNL1       -0.2071
     29 C         145.5871  141.0920  163.9267 C.3     1  UNL1        0.2543
     30 O         145.3576  142.5583  163.7100 O.3     1  UNL1       -0.4551
@<TRIPOS>BOND
     1    29    30    1
     2    30    23    1
     3    23    24   ar
     4    24    25   ar
     5    25    26   ar
     6    26    19    1
     7    19    20    2
     8    19    21   am
     9    21     1    1
    10     1     2   ar
    11     2     3   ar
    12     3     4   ar
    13     4     5    1
    14     4     6   ar
    15     6     8    1
    16     8     9    1
    17     8    10    1
    18    10    11    2
    19    11    12    1
    20    11    13    1
    21    13    14    1
    22    14    15    1
    23    15    16    1
    24     6     7   ar
    25    26    27   ar
    26    27    28   ar
    27    28    23   ar
    28     7     1   ar
    29    15     8    1
    30    21    22    1
    31    12    17    1
    32    12    18    1
@<TRIPOS>MOLECULE
*****
 30 32 0 0 0
SMALL
GASTEIGER

@<TRIPOS>ATOM
      1 C         141.6686  140.0885  164.7788 C.ar    1  UNL1        0.0505
      2 C         142.6673  138.9706  164.8356 C.ar    1  UNL1        0.0170
      3 C         143.1588  138.4708  166.1618 C.ar    1  UNL1        0.0307
      4 C         142.6517  139.0889  167.4310 C.ar    1  UNL1        0.1402
      5 F         143.1432  138.5892  168.7571 F       1  UNL1       -0.2044
      6 C         141.6531  140.2067  167.3741 C.ar    1  UNL1        0.0555
      7 C         141.1615  140.7065  166.0479 C.ar    1  UNL1        0.0168
      8 C         141.1460  140.8247  168.6433 C.3     1  UNL1        0.2513
      9 C         139.9212  140.0741  168.2116 C.3     1  UNL1        0.0638
     10 N         142.5469  141.3608  168.6342 N.2     1  UNL1       -0.0663
     11 C         143.0154  142.2540  169.7444 C.2     1  UNL1        0.3195
     12 N         144.4164  142.7901  169.7353 N.pl3   1  UNL1       -0.2480
     13 C         142.0830  142.6114  170.8637 C.3     1  UNL1        0.2611
     14 O         140.6820  142.0754  170.8728 O.3     1  UNL1       -0.3108
     15 C         140.2136  141.1821  169.7626 C.3     1  UNL1        0.3281
     16 F         138.8126  140.6461  169.7717 F       1  UNL1       -0.1989
     17 H         145.0284  142.5555  169.0006 H       1  UNL1        0.2882
     18 H         144.7239  143.3764  170.4639 H       1  UNL1        0.2882
     19 C         139.8958  140.0589  162.8797 C.2     1  UNL1        0.2688
     20 O         139.1062  139.0298  163.6329 O.2     1  UNL1       -0.2681
     21 N         141.1770  140.5882  163.4526 N.am    1  UNL1       -0.2791
     22 H         141.6954  141.2637  162.9583 H       1  UNL1        0.1552
     23 C         138.4212  141.5582  158.9013 C.ar    1  UNL1        0.2449
     24 C         138.5450  142.5029  160.0598 C.ar    1  UNL1        0.1565
     25 N         139.0365  142.0032  161.3859 N.ar    1  UNL1       -0.2328
     26 C         139.4043  140.5587  161.5536 C.ar    1  UNL1        0.1541
     27 C         139.2805  139.6140  160.3951 C.ar    1  UNL1        0.1258
     28 N         138.7890  140.1137  159.0690 N.ar    1  UNL1       -0.2071
     29 C         136.9160  141.2657  156.8040 C.3     1  UNL1        0.2543
     30 O         137.9296  142.0580  157.5752 O.3     1  UNL1       -0.4551
@<TRIPOS>BOND
     1    29    30    1
     2    30    23    1
     3    23    24   ar
     4    24    25   ar
     5    25    26   ar
     6    26    19    1
     7    19    20    2
     8    19    21   am
     9    21     1    1
    10     1     2   ar
    11     2     3   ar
    12     3     4   ar
    13     4     5    1
    14     4     6   ar
    15     6     8    1
    16     8     9    1
    17     8    10    1
    18    10    11    2
    19    11    12    1
    20    11    13    1
    21    13    14    1
    22    14    15    1
    23    15    16    1
    24     6     7   ar
    25    26    27   ar
    26    27    28   ar
    27    28    23   ar
    28     7     1   ar
    29    15     8    1
    30    21    22    1
    31    12    17    1
    32    12    18    1
@<TRIPOS>MOLECULE
*****
 30 32 0 0 0
SMALL
GASTEIGER

@<TRIPOS>ATOM
      1 C         142.4945  144.3479  162.8556 C.ar    1  UNL1        0.0505
      2 C         143.7298  144.8373  163.5517 C.ar    1  UNL1        0.0170
      3 C         144.1821  144.1846  164.8242 C.ar    1  UNL1        0.0307
      4 C         143.3991  143.0424  165.4007 C.ar    1  UNL1        0.1402
      5 F         143.8514  142.3897  166.6733 F       1  UNL1       -0.2044
      6 C         142.1638  142.5530  164.7047 C.ar    1  UNL1        0.0555
      7 C         141.7115  143.2057  163.4322 C.ar    1  UNL1        0.0168
      8 C         141.3808  141.4109  165.2812 C.3     1  UNL1        0.2513
      9 C         140.7638  142.5543  166.0308 C.3     1  UNL1        0.0638
     10 N         142.2697  140.6640  164.3315 N.2     1  UNL1       -0.0663
     11 C         142.1614  139.1723  164.2186 C.2     1  UNL1        0.3195
     12 N         143.0504  138.4255  163.2688 N.pl3   1  UNL1       -0.2480
     13 C         141.1641  138.4272  165.0554 C.3     1  UNL1        0.2611
     14 O         140.2752  139.1740  166.0052 O.3     1  UNL1       -0.3108
     15 C         140.3835  140.6658  166.1181 C.3     1  UNL1        0.3281
     16 F         139.4946  141.4126  167.0679 F       1  UNL1       -0.1989
     17 H         143.7049  138.9144  162.7195 H       1  UNL1        0.2882
     18 H         142.9793  137.4463  163.1947 H       1  UNL1        0.2882
     19 C         142.1113  144.2471  160.2880 C.2     1  UNL1        0.2688
     20 O         142.6328  142.8409  160.2654 O.2     1  UNL1       -0.2681
     21 N         142.0422  145.0006  161.5831 N.am    1  UNL1       -0.2791
     22 H         141.6999  145.9236  161.5979 H       1  UNL1        0.1552
     23 C         140.7544  146.2053  156.4703 C.ar    1  UNL1        0.2449
     24 C         142.1087  145.5647  156.5445 C.ar    1  UNL1        0.1565
     25 N         142.5610  144.9120  157.8170 N.ar    1  UNL1       -0.2328
     26 C         141.6590  144.8998  159.0154 C.ar    1  UNL1        0.1541
     27 C         140.3048  145.5404  158.9413 C.ar    1  UNL1        0.1258
     28 N         139.8524  146.1931  157.6687 N.ar    1  UNL1       -0.2071
     29 C         138.8826  147.3214  155.0560 C.3     1  UNL1        0.2543
     30 O         140.3021  146.8580  155.1978 O.3     1  UNL1       -0.4551
@<TRIPOS>BOND
     1    29    30    1
     2    30    23    1
     3    23    24   ar
     4    24    25   ar
     5    25    26   ar
     6    26    19    1
     7    19    20    2
     8    19    21   am
     9    21     1    1
    10     1     2   ar
    11     2     3   ar
    12     3     4   ar
    13     4     5    1
    14     4     6   ar
    15     6     8    1
    16     8     9    1
    17     8    10    1
    18    10    11    2
    19    11    12    1
    20    11    13    1
    21    13    14    1
    22    14    15    1
    23    15    16    1
    24     6     7   ar
    25    26    27   ar
    26    27    28   ar
    27    28    23   ar
    28     7     1   ar
    29    15     8    1
    30    21    22    1
    31    12    17    1
    32    12    18    1
@<TRIPOS>MOLECULE
*****
 30 32 0 0 0
SMALL
GASTEIGER

@<TRIPOS>ATOM
      1 C         141.8404  144.6905  161.5767 C.ar    1  UNL1        0.0505
      2 C         141.0188  145.3198  162.6626 C.ar    1  UNL1        0.0170
      3 C         141.0535  144.7555  164.0519 C.ar    1  UNL1        0.0307
      4 C         141.9099  143.5620  164.3555 C.ar    1  UNL1        0.1402
      5 F         141.9446  142.9977  165.7449 F       1  UNL1       -0.2044
      6 C         142.7314  142.9327  163.2697 C.ar    1  UNL1        0.0555
      7 C         142.6967  143.4970  161.8803 C.ar    1  UNL1        0.0168
      8 C         143.5878  141.7392  163.5733 C.3     1  UNL1        0.2513
      9 C         144.6055  142.8322  163.7131 C.3     1  UNL1        0.0638
     10 N         142.2727  141.0606  163.3280 N.2     1  UNL1       -0.0663
     11 C         142.1674  139.5681  163.4349 C.2     1  UNL1        0.3195
     12 N         140.8523  138.8896  163.1896 N.pl3   1  UNL1       -0.2480
     13 C         143.3772  138.7542  163.7870 C.3     1  UNL1        0.2611
     14 O         144.6923  139.4328  164.0323 O.3     1  UNL1       -0.3108
     15 C         144.7975  140.9253  163.9254 C.3     1  UNL1        0.3281
     16 F         146.1126  141.6039  164.1707 F       1  UNL1       -0.1989
     17 H         140.0583  139.4238  162.9585 H       1  UNL1        0.2882
     18 H         140.7832  137.9100  163.2597 H       1  UNL1        0.2882
     19 C         140.6433  144.9592  159.2866 C.2     1  UNL1        0.2688
     20 O         139.5156  144.0993  159.7752 O.2     1  UNL1       -0.2681
     21 N         141.8057  145.2548  160.1873 N.am    1  UNL1       -0.2791
     22 H         142.5459  145.8192  159.8666 H       1  UNL1        0.1552
     23 C         140.5391  146.6520  155.1185 C.ar    1  UNL1        0.2449
     24 C         141.5438  145.5966  155.4744 C.ar    1  UNL1        0.1565
     25 N         141.5785  145.0323  156.8638 N.ar    1  UNL1       -0.2328
     26 C         140.6086  145.5235  157.8972 C.ar    1  UNL1        0.1541
     27 C         139.6040  146.5789  157.5413 C.ar    1  UNL1        0.1258
     28 N         139.5693  147.1432  156.1519 N.ar    1  UNL1       -0.2071
     29 C         140.0362  148.6232  153.5025 C.3     1  UNL1        0.2543
     30 O         140.5044  147.2163  153.7291 O.3     1  UNL1       -0.4551
@<TRIPOS>BOND
     1    29    30    1
     2    30    23    1
     3    23    24   ar
     4    24    25   ar
     5    25    26   ar
     6    26    19    1
     7    19    20    2
     8    19    21   am
     9    21     1    1
    10     1     2   ar
    11     2     3   ar
    12     3     4   ar
    13     4     5    1
    14     4     6   ar
    15     6     8    1
    16     8     9    1
    17     8    10    1
    18    10    11    2
    19    11    12    1
    20    11    13    1
    21    13    14    1
    22    14    15    1
    23    15    16    1
    24     6     7   ar
    25    26    27   ar
    26    27    28   ar
    27    28    23   ar
    28     7     1   ar
    29    15     8    1
    30    21    22    1
    31    12    17    1
    32    12    18    1
