@<TRIPOS>MOLECULE
*****
 33 35 0 0 0
SMALL
GASTEIGER

@<TRIPOS>ATOM
      1 C         140.1208  138.9579  163.5553 C.ar    1  UNL1        0.0000
      2 C         141.4752  138.3938  163.2435 C.ar    1  UNL1        0.0000
      3 C         141.8939  138.1931  161.8171 C.ar    1  UNL1        0.0016
      4 C         140.9582  138.5566  160.7026 C.ar    1  UNL1        0.0207
      5 C         139.6038  139.1208  161.0144 C.ar    1  UNL1        0.0016
      6 C         139.1851  139.3214  162.4407 C.ar    1  UNL1        0.0000
      7 C         138.8647  139.5599  167.8343 C.ar    1  UNL1        0.0222
      8 C         137.9685  138.8191  166.8867 C.ar    1  UNL1        0.0016
      9 C         138.3872  138.6185  165.4603 C.ar    1  UNL1        0.0001
     10 C         139.7021  139.1586  164.9816 C.ar    1  UNL1        0.0000
     11 C         140.5984  139.8993  165.9292 C.ar    1  UNL1        0.0001
     12 C         140.1797  140.0999  167.3556 C.ar    1  UNL1        0.0016
     13 N         137.2980  138.9757  169.8228 N.2     1  UNL1       -0.1091
     14 C         138.4461  139.7605  169.2606 C.2     1  UNL1        0.1359
     15 N         136.8794  139.1763  171.2491 N.pl3   1  UNL1       -0.1544
     16 H         137.0571  140.0342  171.6983 H       1  UNL1        0.2922
     17 N         134.9472  138.3569  172.7806 N.pl3   1  UNL1       -0.1280
     18 C         136.1899  138.0699  171.9911 C.cat   1  UNL1        0.3997
     19 N         136.7431  136.6764  171.9435 N.pl3   1  UNL1       -0.2876
     20 H         134.4947  137.6307  173.2676 H       1  UNL1        0.3062
     21 H         136.2906  135.9502  172.4305 H       1  UNL1        0.2547
     22 H         137.5587  136.4881  171.4253 H       1  UNL1        0.2547
     23 C         141.3769  138.3560  159.2762 C.2     1  UNL1        0.1175
     24 N         142.6907  137.7025  158.9651 N.2     1  UNL1       -0.1798
     25 N         143.1094  137.5019  157.5388 N.pl3   1  UNL1       -0.2355
     26 H         143.6965  138.1597  157.1009 H       1  UNL1        0.1744
     27 C         142.6335  136.2989  156.7795 C.ar    1  UNL1        0.0712
     28 C         143.2424  134.9543  157.0465 C.ar    1  UNL1        0.0165
     29 C         142.7665  133.7513  156.2873 C.ar    1  UNL1        0.0014
     30 C         141.6816  133.8929  155.2611 C.ar    1  UNL1        0.0006
     31 C         141.0726  135.2376  154.9942 C.ar    1  UNL1        0.0080
     32 C         141.5486  136.4405  155.7534 C.ar    1  UNL1        0.0493
     33 BR        140.9396  137.7852  155.4864 Br      1  UNL1       -0.0477
@<TRIPOS>BOND
     1    17    18    2
     2    18    19    1
     3    18    15    1
     4    15    13    1
     5    13    14    2
     6    14     7    1
     7     7     8   ar
     8     8     9   ar
     9     9    10   ar
    10    10     1    1
    11     1     2   ar
    12     2     3   ar
    13     3     4   ar
    14     4    23    1
    15    23    24    2
    16    24    25    1
    17    25    27    1
    18    27    28   ar
    19    28    29   ar
    20    29    30   ar
    21    30    31   ar
    22    31    32   ar
    23    32    33    1
    24     4     5   ar
    25     5     6   ar
    26    10    11   ar
    27    11    12   ar
    28    12     7   ar
    29     6     1   ar
    30    32    27   ar
    31    17    20    1
    32    19    21    1
    33    19    22    1
    34    15    16    1
    35    25    26    1
@<TRIPOS>MOLECULE
*****
 33 35 0 0 0
SMALL
GASTEIGER

@<TRIPOS>ATOM
      1 C         142.5448  139.1132  162.6212 C.ar    1  UNL1        0.0000
      2 C         143.5603  138.1365  162.1066 C.ar    1  UNL1        0.0000
      3 C         143.5669  137.7559  160.6557 C.ar    1  UNL1        0.0016
      4 C         142.5580  138.3520  159.7194 C.ar    1  UNL1        0.0207
      5 C         141.5425  139.3287  160.2340 C.ar    1  UNL1        0.0016
      6 C         141.5359  139.7092  161.6849 C.ar    1  UNL1        0.0000
      7 C         142.5252  140.2549  166.9739 C.ar    1  UNL1        0.0222
      8 C         142.9116  138.8644  166.5650 C.ar    1  UNL1        0.0016
      9 C         142.9181  138.4838  165.1141 C.ar    1  UNL1        0.0001
     10 C         142.5383  139.4937  164.0721 C.ar    1  UNL1        0.0000
     11 C         142.1519  140.8842  164.4810 C.ar    1  UNL1        0.0001
     12 C         142.1453  141.2648  165.9319 C.ar    1  UNL1        0.0016
     13 N         142.9324  139.6362  169.4641 N.2     1  UNL1       -0.1091
     14 C         142.5186  140.6355  168.4248 C.2     1  UNL1        0.1359
     15 N         142.9259  140.0168  170.9150 N.pl3   1  UNL1       -0.1544
     16 H         143.6348  139.6875  171.5135 H       1  UNL1        0.2922
     17 N         142.1458  142.3155  171.8410 N.pl3   1  UNL1       -0.1280
     18 C         141.8391  140.8992  171.4541 C.cat   1  UNL1        0.3997
     19 N         140.4457  140.3651  171.6061 N.pl3   1  UNL1       -0.2876
     20 H         141.4325  142.8946  172.1948 H       1  UNL1        0.3062
     21 H         139.7324  140.9442  171.9598 H       1  UNL1        0.2547
     22 H         140.2444  139.4355  171.3521 H       1  UNL1        0.2547
     23 C         142.5645  137.9714  158.2685 C.2     1  UNL1        0.1175
     24 N         143.0658  136.6212  157.8495 N.2     1  UNL1       -0.1798
     25 N         143.0724  136.2406  156.3986 N.pl3   1  UNL1       -0.2355
     26 H         143.2436  136.9243  155.7112 H       1  UNL1        0.1744
     27 C         142.8181  134.8184  155.9951 C.ar    1  UNL1        0.0712
     28 C         143.0638  133.7065  156.9714 C.ar    1  UNL1        0.0165
     29 C         142.8095  132.2843  156.5679 C.ar    1  UNL1        0.0014
     30 C         142.3095  131.9741  155.1882 C.ar    1  UNL1        0.0006
     31 C         142.0637  133.0861  154.2119 C.ar    1  UNL1        0.0080
     32 C         142.3180  134.5082  154.6154 C.ar    1  UNL1        0.0493
     33 BR        142.0723  135.6203  153.6391 Br      1  UNL1       -0.0477
@<TRIPOS>BOND
     1    17    18    2
     2    18    19    1
     3    18    15    1
     4    15    13    1
     5    13    14    2
     6    14     7    1
     7     7     8   ar
     8     8     9   ar
     9     9    10   ar
    10    10     1    1
    11     1     2   ar
    12     2     3   ar
    13     3     4   ar
    14     4    23    1
    15    23    24    2
    16    24    25    1
    17    25    27    1
    18    27    28   ar
    19    28    29   ar
    20    29    30   ar
    21    30    31   ar
    22    31    32   ar
    23    32    33    1
    24     4     5   ar
    25     5     6   ar
    26    10    11   ar
    27    11    12   ar
    28    12     7   ar
    29     6     1   ar
    30    32    27   ar
    31    17    20    1
    32    19    21    1
    33    19    22    1
    34    15    16    1
    35    25    26    1
@<TRIPOS>MOLECULE
*****
 33 35 0 0 0
SMALL
GASTEIGER

@<TRIPOS>ATOM
      1 C         141.1567  139.0880  164.2659 C.ar    1  UNL1        0.0000
      2 C         142.5236  139.6504  164.0103 C.ar    1  UNL1        0.0000
      3 C         143.1870  139.4347  162.6824 C.ar    1  UNL1        0.0016
      4 C         142.4836  138.6568  161.6101 C.ar    1  UNL1        0.0207
      5 C         141.1167  138.0944  161.8657 C.ar    1  UNL1        0.0016
      6 C         140.4533  138.3100  163.1936 C.ar    1  UNL1        0.0000
      7 C         139.1664  139.7349  168.2497 C.ar    1  UNL1        0.0222
      8 C         140.6033  140.1201  168.0578 C.ar    1  UNL1        0.0016
      9 C         141.2668  139.9045  166.7299 C.ar    1  UNL1        0.0001
     10 C         140.4933  139.3037  165.5938 C.ar    1  UNL1        0.0000
     11 C         139.0564  138.9185  165.7857 C.ar    1  UNL1        0.0001
     12 C         138.3929  139.1341  167.1136 C.ar    1  UNL1        0.0016
     13 N         137.3435  139.0907  169.9851 N.2     1  UNL1       -0.1091
     14 C         138.5030  139.9506  169.5776 C.2     1  UNL1        0.1359
     15 N         136.6800  139.3063  171.3130 N.pl3   1  UNL1       -0.1544
     16 H         136.6501  140.2077  171.7078 H       1  UNL1        0.2922
     17 N         136.6031  136.7636  171.8411 N.pl3   1  UNL1       -0.1280
     18 C         136.0621  138.1485  172.0395 C.cat   1  UNL1        0.3997
     19 N         134.9032  138.3756  172.9644 N.pl3   1  UNL1       -0.2876
     20 H         136.1976  136.0037  172.3180 H       1  UNL1        0.3062
     21 H         134.4977  137.6158  173.4412 H       1  UNL1        0.2547
     22 H         134.5482  139.2846  173.0946 H       1  UNL1        0.2547
     23 C         143.1470  138.4411  160.2822 C.2     1  UNL1        0.1175
     24 N         142.5297  137.5146  159.2770 N.2     1  UNL1       -0.1798
     25 N         143.1931  137.2990  157.9491 N.pl3   1  UNL1       -0.2355
     26 H         144.1409  137.5364  157.8280 H       1  UNL1        0.1744
     27 C         142.4125  136.7216  156.8057 C.ar    1  UNL1        0.0712
     28 C         141.4842  137.5948  156.0146 C.ar    1  UNL1        0.0165
     29 C         140.7035  137.0174  154.8712 C.ar    1  UNL1        0.0014
     30 C         140.8513  135.5669  154.5188 C.ar    1  UNL1        0.0006
     31 C         141.7797  134.6938  155.3099 C.ar    1  UNL1        0.0080
     32 C         142.5603  135.2711  156.4533 C.ar    1  UNL1        0.0493
     33 BR        143.4887  134.3980  157.2444 Br      1  UNL1       -0.0477
@<TRIPOS>BOND
     1    17    18    2
     2    18    19    1
     3    18    15    1
     4    15    13    1
     5    13    14    2
     6    14     7    1
     7     7     8   ar
     8     8     9   ar
     9     9    10   ar
    10    10     1    1
    11     1     2   ar
    12     2     3   ar
    13     3     4   ar
    14     4    23    1
    15    23    24    2
    16    24    25    1
    17    25    27    1
    18    27    28   ar
    19    28    29   ar
    20    29    30   ar
    21    30    31   ar
    22    31    32   ar
    23    32    33    1
    24     4     5   ar
    25     5     6   ar
    26    10    11   ar
    27    11    12   ar
    28    12     7   ar
    29     6     1   ar
    30    32    27   ar
    31    17    20    1
    32    19    21    1
    33    19    22    1
    34    15    16    1
    35    25    26    1
@<TRIPOS>MOLECULE
*****
 33 35 0 0 0
SMALL
GASTEIGER

@<TRIPOS>ATOM
      1 C         141.3908  143.9532  162.8249 C.ar    1  UNL1        0.0000
      2 C         140.4160  145.0204  162.4237 C.ar    1  UNL1        0.0000
      3 C         140.3696  145.4979  161.0025 C.ar    1  UNL1        0.0016
      4 C         141.2979  144.9084  159.9825 C.ar    1  UNL1        0.0207
      5 C         142.2727  143.8412  160.3836 C.ar    1  UNL1        0.0016
      6 C         142.3191  143.3636  161.8048 C.ar    1  UNL1        0.0000
      7 C         141.5302  142.5205  167.0884 C.ar    1  UNL1        0.0222
      8 C         140.2548  143.0726  166.5240 C.ar    1  UNL1        0.0016
      9 C         140.2083  143.5502  165.1028 C.ar    1  UNL1        0.0001
     10 C         141.4373  143.4756  164.2460 C.ar    1  UNL1        0.0000
     11 C         142.7126  142.9236  164.8104 C.ar    1  UNL1        0.0001
     12 C         142.7591  142.4460  166.2316 C.ar    1  UNL1        0.0016
     13 N         142.3039  142.8457  169.5472 N.2     1  UNL1       -0.1091
     14 C         141.5766  142.0429  168.5096 C.2     1  UNL1        0.1359
     15 N         142.3504  142.3681  170.9684 N.pl3   1  UNL1       -0.1544
     16 H         142.5467  143.0029  171.6948 H       1  UNL1        0.2922
     17 N         140.7537  140.4895  171.7878 N.pl3   1  UNL1       -0.1280
     18 C         142.0978  140.9233  171.2827 C.cat   1  UNL1        0.3997
     19 N         143.1894  139.9123  171.0919 N.pl3   1  UNL1       -0.2876
     20 H         140.5880  139.5412  171.9941 H       1  UNL1        0.3062
     21 H         143.0236  138.9640  171.2982 H       1  UNL1        0.2547
     22 H         144.0716  140.1970  170.7603 H       1  UNL1        0.2547
     23 C         141.2514  145.3859  158.5613 C.2     1  UNL1        0.1175
     24 N         140.0431  145.1101  157.7165 N.2     1  UNL1       -0.1798
     25 N         139.9966  145.5877  156.2953 N.pl3   1  UNL1       -0.2355
     26 H         140.2134  144.9690  155.5608 H       1  UNL1        0.1744
     27 C         139.6199  147.0079  155.9933 C.ar    1  UNL1        0.0712
     28 C         138.8651  147.8154  157.0072 C.ar    1  UNL1        0.0165
     29 C         138.4884  149.2357  156.7052 C.ar    1  UNL1        0.0014
     30 C         138.8665  149.8482  155.3892 C.ar    1  UNL1        0.0006
     31 C         139.6213  149.0406  154.3753 C.ar    1  UNL1        0.0080
     32 C         139.9980  147.6204  154.6773 C.ar    1  UNL1        0.0493
     33 BR        140.7528  146.8128  153.6634 Br      1  UNL1       -0.0477
@<TRIPOS>BOND
     1    17    18    2
     2    18    19    1
     3    18    15    1
     4    15    13    1
     5    13    14    2
     6    14     7    1
     7     7     8   ar
     8     8     9   ar
     9     9    10   ar
    10    10     1    1
    11     1     2   ar
    12     2     3   ar
    13     3     4   ar
    14     4    23    1
    15    23    24    2
    16    24    25    1
    17    25    27    1
    18    27    28   ar
    19    28    29   ar
    20    29    30   ar
    21    30    31   ar
    22    31    32   ar
    23    32    33    1
    24     4     5   ar
    25     5     6   ar
    26    10    11   ar
    27    11    12   ar
    28    12     7   ar
    29     6     1   ar
    30    32    27   ar
    31    17    20    1
    32    19    21    1
    33    19    22    1
    34    15    16    1
    35    25    26    1
@<TRIPOS>MOLECULE
*****
 33 35 0 0 0
SMALL
GASTEIGER

@<TRIPOS>ATOM
      1 C         142.2463  138.9016  162.6412 C.ar    1  UNL1        0.0000
      2 C         141.0261  139.1666  161.8099 C.ar    1  UNL1        0.0000
      3 C         141.0096  138.7855  160.3593 C.ar    1  UNL1        0.0016
      4 C         142.2133  138.1395  159.7398 C.ar    1  UNL1        0.0207
      5 C         143.4334  137.8745  160.5710 C.ar    1  UNL1        0.0016
      6 C         143.4499  138.2555  162.0217 C.ar    1  UNL1        0.0000
      7 C         142.2958  140.0449  166.9932 C.ar    1  UNL1        0.0222
      8 C         143.0329  138.8233  166.5303 C.ar    1  UNL1        0.0016
      9 C         143.0164  138.4422  165.0796 C.ar    1  UNL1        0.0001
     10 C         142.2628  139.2827  164.0919 C.ar    1  UNL1        0.0000
     11 C         141.5257  140.5043  164.5548 C.ar    1  UNL1        0.0001
     12 C         141.5422  140.8854  166.0055 C.ar    1  UNL1        0.0016
     13 N         143.0422  139.5699  169.4360 N.2     1  UNL1       -0.1091
     14 C         142.3123  140.4260  168.4439 C.2     1  UNL1        0.1359
     15 N         143.0587  139.9509  170.8867 N.pl3   1  UNL1       -0.1544
     16 H         143.7232  139.5510  171.4932 H       1  UNL1        0.2922
     17 N         140.7104  140.4766  171.8661 N.pl3   1  UNL1       -0.1280
     18 C         142.0628  140.9414  171.4134 C.cat   1  UNL1        0.3997
     19 N         142.4193  142.3965  171.4872 N.pl3   1  UNL1       -0.2876
     20 H         140.0568  141.1267  172.2117 H       1  UNL1        0.3062
     21 H         141.7657  143.0465  171.8329 H       1  UNL1        0.2547
     22 H         143.3070  142.7015  171.1901 H       1  UNL1        0.2547
     23 C         142.1968  137.7584  158.2891 C.2     1  UNL1        0.1175
     24 N         143.3406  138.1449  157.3991 N.2     1  UNL1       -0.1798
     25 N         143.3241  137.7638  155.9484 N.pl3   1  UNL1       -0.2355
     26 H         143.5041  138.4431  155.2589 H       1  UNL1        0.1744
     27 C         143.0334  136.3476  155.5482 C.ar    1  UNL1        0.0712
     28 C         143.8783  135.2290  156.0818 C.ar    1  UNL1        0.0165
     29 C         143.5876  133.8128  155.6817 C.ar    1  UNL1        0.0014
     30 C         142.4520  133.5154  154.7478 C.ar    1  UNL1        0.0006
     31 C         141.6071  134.6341  154.2142 C.ar    1  UNL1        0.0080
     32 C         141.8978  136.0502  154.6144 C.ar    1  UNL1        0.0493
     33 BR        141.0530  137.1689  154.0808 Br      1  UNL1       -0.0477
@<TRIPOS>BOND
     1    17    18    2
     2    18    19    1
     3    18    15    1
     4    15    13    1
     5    13    14    2
     6    14     7    1
     7     7     8   ar
     8     8     9   ar
     9     9    10   ar
    10    10     1    1
    11     1     2   ar
    12     2     3   ar
    13     3     4   ar
    14     4    23    1
    15    23    24    2
    16    24    25    1
    17    25    27    1
    18    27    28   ar
    19    28    29   ar
    20    29    30   ar
    21    30    31   ar
    22    31    32   ar
    23    32    33    1
    24     4     5   ar
    25     5     6   ar
    26    10    11   ar
    27    11    12   ar
    28    12     7   ar
    29     6     1   ar
    30    32    27   ar
    31    17    20    1
    32    19    21    1
    33    19    22    1
    34    15    16    1
    35    25    26    1
@<TRIPOS>MOLECULE
*****
 33 35 0 0 0
SMALL
GASTEIGER

@<TRIPOS>ATOM
      1 C         142.2504  142.3777  165.1895 C.ar    1  UNL1        0.0000
      2 C         143.1380  143.5679  164.9762 C.ar    1  UNL1        0.0000
      3 C         142.9878  144.4036  163.7397 C.ar    1  UNL1        0.0016
      4 C         141.9501  144.0491  162.7163 C.ar    1  UNL1        0.0207
      5 C         141.0624  142.8589  162.9296 C.ar    1  UNL1        0.0016
      6 C         141.2126  142.0232  164.1661 C.ar    1  UNL1        0.0000
      7 C         142.7009  139.8707  168.8992 C.ar    1  UNL1        0.0222
      8 C         142.6544  139.2141  167.5513 C.ar    1  UNL1        0.0016
      9 C         142.5043  140.0498  166.3148 C.ar    1  UNL1        0.0001
     10 C         142.4005  141.5420  166.4260 C.ar    1  UNL1        0.0000
     11 C         142.4470  142.1986  167.7739 C.ar    1  UNL1        0.0001
     12 C         142.5971  141.3629  169.0104 C.ar    1  UNL1        0.0016
     13 N         143.4072  137.6454  170.0388 N.2     1  UNL1       -0.1091
     14 C         142.8510  139.0350  170.1357 C.2     1  UNL1        0.1359
     15 N         143.5574  136.8097  171.2754 N.pl3   1  UNL1       -0.1544
     16 H         142.8538  136.8186  171.9640 H       1  UNL1        0.2922
     17 N         146.1411  136.5418  171.2217 N.pl3   1  UNL1       -0.1280
     18 C         144.7796  135.9604  171.4628 C.cat   1  UNL1        0.3997
     19 N         144.6402  134.5297  171.8914 N.pl3   1  UNL1       -0.2876
     20 H         146.9432  135.9844  171.3447 H       1  UNL1        0.3062
     21 H         145.4423  133.9723  172.0144 H       1  UNL1        0.2547
     22 H         143.7465  134.1481  172.0497 H       1  UNL1        0.2547
     23 C         141.7999  144.8848  161.4798 C.2     1  UNL1        0.1175
     24 N         142.1331  144.3044  160.1374 N.2     1  UNL1       -0.1798
     25 N         141.9830  145.1401  158.9008 N.pl3   1  UNL1       -0.2355
     26 H         141.6661  146.0696  158.9703 H       1  UNL1        0.1744
     27 C         142.3157  144.5596  157.5583 C.ar    1  UNL1        0.0712
     28 C         143.3030  143.4354  157.4511 C.ar    1  UNL1        0.0165
     29 C         143.6357  142.8549  156.1085 C.ar    1  UNL1        0.0014
     30 C         142.9811  143.3985  154.8732 C.ar    1  UNL1        0.0006
     31 C         141.9937  144.5227  154.9805 C.ar    1  UNL1        0.0080
     32 C         141.6611  145.1032  156.3230 C.ar    1  UNL1        0.0493
     33 BR        140.6737  146.2274  156.4302 Br      1  UNL1       -0.0477
@<TRIPOS>BOND
     1    17    18    2
     2    18    19    1
     3    18    15    1
     4    15    13    1
     5    13    14    2
     6    14     7    1
     7     7     8   ar
     8     8     9   ar
     9     9    10   ar
    10    10     1    1
    11     1     2   ar
    12     2     3   ar
    13     3     4   ar
    14     4    23    1
    15    23    24    2
    16    24    25    1
    17    25    27    1
    18    27    28   ar
    19    28    29   ar
    20    29    30   ar
    21    30    31   ar
    22    31    32   ar
    23    32    33    1
    24     4     5   ar
    25     5     6   ar
    26    10    11   ar
    27    11    12   ar
    28    12     7   ar
    29     6     1   ar
    30    32    27   ar
    31    17    20    1
    32    19    21    1
    33    19    22    1
    34    15    16    1
    35    25    26    1
@<TRIPOS>MOLECULE
*****
 33 35 0 0 0
SMALL
GASTEIGER

@<TRIPOS>ATOM
      1 C         138.8430  140.7633  162.7310 C.ar    1  UNL1        0.0000
      2 C         138.4805  139.4764  162.0509 C.ar    1  UNL1        0.0000
      3 C         138.1314  139.4715  160.5921 C.ar    1  UNL1        0.0016
      4 C         138.1447  140.7535  159.8134 C.ar    1  UNL1        0.0207
      5 C         138.5072  142.0403  160.4935 C.ar    1  UNL1        0.0016
      6 C         138.8563  142.0452  161.9523 C.ar    1  UNL1        0.0000
      7 C         139.8903  140.7781  167.1074 C.ar    1  UNL1        0.0222
      8 C         138.9579  139.7370  166.5629 C.ar    1  UNL1        0.0016
      9 C         138.6087  139.7320  165.1041 C.ar    1  UNL1        0.0001
     10 C         139.1921  140.7682  164.1898 C.ar    1  UNL1        0.0000
     11 C         140.1246  141.8093  164.7343 C.ar    1  UNL1        0.0001
     12 C         140.4737  141.8143  166.1931 C.ar    1  UNL1        0.0016
     13 N         139.5603  139.8287  169.5031 N.2     1  UNL1       -0.1091
     14 C         140.2394  140.7830  168.5662 C.2     1  UNL1        0.1359
     15 N         139.9094  139.8336  170.9619 N.pl3   1  UNL1       -0.1544
     16 H         139.4940  139.1799  171.5697 H       1  UNL1        0.2922
     17 N         140.4158  142.1816  171.9522 N.pl3   1  UNL1       -0.1280
     18 C         140.8914  140.8346  171.4947 C.cat   1  UNL1        0.3997
     19 N         142.3490  140.4884  171.5700 N.pl3   1  UNL1       -0.2876
     20 H         141.0603  142.8385  172.3018 H       1  UNL1        0.3062
     21 H         142.9935  141.1453  171.9197 H       1  UNL1        0.2547
     22 H         142.6611  139.6043  171.2698 H       1  UNL1        0.2547
     23 C         137.7956  140.7485  158.3546 C.2     1  UNL1        0.1175
     24 N         137.7885  142.0335  157.5808 N.2     1  UNL1       -0.1798
     25 N         137.4394  142.0286  156.1220 N.pl3   1  UNL1       -0.2355
     26 H         137.3380  142.8794  155.6372 H       1  UNL1        0.1744
     27 C         137.2448  140.7272  155.4018 C.ar    1  UNL1        0.0712
     28 C         138.4331  139.9682  154.8901 C.ar    1  UNL1        0.0165
     29 C         138.2386  138.6668  154.1699 C.ar    1  UNL1        0.0014
     30 C         136.8557  138.1245  153.9613 C.ar    1  UNL1        0.0006
     31 C         135.6673  138.8836  154.4730 C.ar    1  UNL1        0.0080
     32 C         135.8619  140.1849  155.1932 C.ar    1  UNL1        0.0493
     33 BR        134.6736  140.9440  155.7048 Br      1  UNL1       -0.0477
@<TRIPOS>BOND
     1    17    18    2
     2    18    19    1
     3    18    15    1
     4    15    13    1
     5    13    14    2
     6    14     7    1
     7     7     8   ar
     8     8     9   ar
     9     9    10   ar
    10    10     1    1
    11     1     2   ar
    12     2     3   ar
    13     3     4   ar
    14     4    23    1
    15    23    24    2
    16    24    25    1
    17    25    27    1
    18    27    28   ar
    19    28    29   ar
    20    29    30   ar
    21    30    31   ar
    22    31    32   ar
    23    32    33    1
    24     4     5   ar
    25     5     6   ar
    26    10    11   ar
    27    11    12   ar
    28    12     7   ar
    29     6     1   ar
    30    32    27   ar
    31    17    20    1
    32    19    21    1
    33    19    22    1
    34    15    16    1
    35    25    26    1
@<TRIPOS>MOLECULE
*****
 33 35 0 0 0
SMALL
GASTEIGER

@<TRIPOS>ATOM
      1 C         141.3027  143.9084  162.8711 C.ar    1  UNL1        0.0000
      2 C         140.5045  145.1149  162.4747 C.ar    1  UNL1        0.0000
      3 C         140.4806  145.5610  161.0427 C.ar    1  UNL1        0.0016
      4 C         141.2548  144.8007  160.0072 C.ar    1  UNL1        0.0207
      5 C         142.0530  143.5942  160.4036 C.ar    1  UNL1        0.0016
      6 C         142.0769  143.1480  161.8355 C.ar    1  UNL1        0.0000
      7 C         141.3744  142.5699  167.1668 C.ar    1  UNL1        0.0222
      8 C         142.6047  142.4368  166.3191 C.ar    1  UNL1        0.0016
      9 C         142.5808  142.8830  164.8872 C.ar    1  UNL1        0.0001
     10 C         141.3266  143.4622  164.3030 C.ar    1  UNL1        0.0000
     11 C         140.0963  143.5952  165.1506 C.ar    1  UNL1        0.0001
     12 C         140.1202  143.1491  166.5825 C.ar    1  UNL1        0.0016
     13 N         142.2253  142.8702  169.6031 N.2     1  UNL1       -0.1091
     14 C         141.3983  142.1237  168.5987 C.2     1  UNL1        0.1359
     15 N         142.2492  142.4240  171.0350 N.pl3   1  UNL1       -0.1544
     16 H         142.4195  143.0774  171.7515 H       1  UNL1        0.2922
     17 N         140.6683  140.5381  171.8684 N.pl3   1  UNL1       -0.1280
     18 C         142.0135  140.9822  171.3754 C.cat   1  UNL1        0.3997
     19 N         143.1232  139.9845  171.2227 N.pl3   1  UNL1       -0.2876
     20 H         140.5137  139.5919  172.0918 H       1  UNL1        0.3062
     21 H         142.9685  139.0382  171.4461 H       1  UNL1        0.2547
     22 H         144.0061  140.2760  170.8991 H       1  UNL1        0.2547
     23 C         141.2309  145.2468  158.5753 C.2     1  UNL1        0.1175
     24 N         140.1360  146.1494  158.0892 N.2     1  UNL1       -0.1798
     25 N         140.1120  146.5956  156.6573 N.pl3   1  UNL1       -0.2355
     26 H         140.4146  147.5016  156.4189 H       1  UNL1        0.1744
     27 C         139.6271  145.6613  155.5886 C.ar    1  UNL1        0.0712
     28 C         138.1562  145.4354  155.4007 C.ar    1  UNL1        0.0165
     29 C         137.6713  144.5011  154.3321 C.ar    1  UNL1        0.0014
     30 C         138.6574  143.7927  153.4513 C.ar    1  UNL1        0.0006
     31 C         140.1284  144.0186  153.6392 C.ar    1  UNL1        0.0080
     32 C         140.6132  144.9529  154.7078 C.ar    1  UNL1        0.0493
     33 BR        142.0842  145.1788  154.8957 Br      1  UNL1       -0.0477
@<TRIPOS>BOND
     1    17    18    2
     2    18    19    1
     3    18    15    1
     4    15    13    1
     5    13    14    2
     6    14     7    1
     7     7     8   ar
     8     8     9   ar
     9     9    10   ar
    10    10     1    1
    11     1     2   ar
    12     2     3   ar
    13     3     4   ar
    14     4    23    1
    15    23    24    2
    16    24    25    1
    17    25    27    1
    18    27    28   ar
    19    28    29   ar
    20    29    30   ar
    21    30    31   ar
    22    31    32   ar
    23    32    33    1
    24     4     5   ar
    25     5     6   ar
    26    10    11   ar
    27    11    12   ar
    28    12     7   ar
    29     6     1   ar
    30    32    27   ar
    31    17    20    1
    32    19    21    1
    33    19    22    1
    34    15    16    1
    35    25    26    1
@<TRIPOS>MOLECULE
*****
 33 35 0 0 0
SMALL
GASTEIGER

@<TRIPOS>ATOM
      1 C         142.6374  139.0857  162.6452 C.ar    1  UNL1        0.0000
      2 C         141.5248  139.5220  161.7387 C.ar    1  UNL1        0.0000
      3 C         141.5331  139.1195  160.2937 C.ar    1  UNL1        0.0016
      4 C         142.6540  138.2807  159.7553 C.ar    1  UNL1        0.0207
      5 C         143.7666  137.8444  160.6618 C.ar    1  UNL1        0.0016
      6 C         143.7583  138.2469  162.1067 C.ar    1  UNL1        0.0000
      7 C         142.6124  140.2933  166.9801 C.ar    1  UNL1        0.0222
      8 C         142.5925  138.8409  166.6060 C.ar    1  UNL1        0.0016
      9 C         142.6009  138.4384  165.1610 C.ar    1  UNL1        0.0001
     10 C         142.6291  139.4883  164.0901 C.ar    1  UNL1        0.0000
     11 C         142.6489  140.9407  164.4642 C.ar    1  UNL1        0.0001
     12 C         142.6406  141.3432  165.9092 C.ar    1  UNL1        0.0016
     13 N         142.9682  139.6977  169.4837 N.2     1  UNL1       -0.1091
     14 C         142.6041  140.6959  168.4250 C.2     1  UNL1        0.1359
     15 N         142.9599  140.1002  170.9287 N.pl3   1  UNL1       -0.1544
     16 H         143.6854  139.8063  171.5258 H       1  UNL1        0.2922
     17 N         142.1163  142.3667  171.8784 N.pl3   1  UNL1       -0.1280
     18 C         141.8461  140.9506  171.4640 C.cat   1  UNL1        0.3997
     19 N         140.4622  140.3849  171.5848 N.pl3   1  UNL1       -0.2876
     20 H         141.3854  142.9248  172.2296 H       1  UNL1        0.3062
     21 H         139.7312  140.9430  171.9361 H       1  UNL1        0.2547
     22 H         140.2848  139.4555  171.3128 H       1  UNL1        0.2547
     23 C         142.6624  137.8781  158.3103 C.2     1  UNL1        0.1175
     24 N         143.5386  138.6056  157.3341 N.2     1  UNL1       -0.1798
     25 N         143.5469  138.2030  155.8892 N.pl3   1  UNL1       -0.2355
     26 H         144.3806  138.2562  155.3682 H       1  UNL1        0.1744
     27 C         142.2850  137.7195  155.2380 C.ar    1  UNL1        0.0712
     28 C         141.1584  138.6764  154.9831 C.ar    1  UNL1        0.0165
     29 C         139.8965  138.1929  154.3319 C.ar    1  UNL1        0.0014
     30 C         139.7613  136.7524  153.9358 C.ar    1  UNL1        0.0006
     31 C         140.8881  135.7955  154.1908 C.ar    1  UNL1        0.0080
     32 C         142.1499  136.2791  154.8419 C.ar    1  UNL1        0.0493
     33 BR        143.2766  135.3222  155.0969 Br      1  UNL1       -0.0477
@<TRIPOS>BOND
     1    17    18    2
     2    18    19    1
     3    18    15    1
     4    15    13    1
     5    13    14    2
     6    14     7    1
     7     7     8   ar
     8     8     9   ar
     9     9    10   ar
    10    10     1    1
    11     1     2   ar
    12     2     3   ar
    13     3     4   ar
    14     4    23    1
    15    23    24    2
    16    24    25    1
    17    25    27    1
    18    27    28   ar
    19    28    29   ar
    20    29    30   ar
    21    30    31   ar
    22    31    32   ar
    23    32    33    1
    24     4     5   ar
    25     5     6   ar
    26    10    11   ar
    27    11    12   ar
    28    12     7   ar
    29     6     1   ar
    30    32    27   ar
    31    17    20    1
    32    19    21    1
    33    19    22    1
    34    15    16    1
    35    25    26    1
