@<TRIPOS>MOLECULE
*****
 36 41 0 0 0
SMALL
GASTEIGER

@<TRIPOS>ATOM
      1 C         140.8963  140.8888  165.5901 C.ar    1  UNL1        0.1473
      2 C         141.6061  140.6671  164.2874 C.ar    1  UNL1        0.0390
      3 C         141.4673  141.6671  163.1780 C.ar    1  UNL1        0.0208
      4 C         140.6187  142.8887  163.3713 C.ar    1  UNL1        0.0683
      5 C         139.9089  143.1104  164.6740 C.ar    1  UNL1        0.0208
      6 C         139.1474  144.3989  164.5736 C.ar    1  UNL1        0.0207
      7 C         139.3866  144.9735  163.2088 C.ar    1  UNL1        0.0842
      8 N         140.2959  144.0402  162.4658 N.ar    1  UNL1       -0.2609
      9 C         140.7948  144.2256  161.0634 C.2     1  UNL1        0.3248
     10 O         141.7037  143.2026  160.4492 O.2     1  UNL1       -0.2488
     11 N         140.3848  145.4343  160.2751 N.am    1  UNL1       -0.2514
     12 C         140.0477  142.1105  165.7834 C.ar    1  UNL1        0.0390
     13 H         139.7882  146.1057  160.6782 H       1  UNL1        0.1580
     14 C         140.8837  145.6198  158.8728 C.ar    1  UNL1        0.1299
     15 C         140.0631  146.0567  157.6956 C.ar    1  UNL1        0.0503
     16 C         140.9630  146.1079  156.4966 C.ar    1  UNL1        0.0804
     17 N         142.3398  145.7026  156.9328 N.ar    1  UNL1       -0.1760
     18 N         142.2908  145.4009  158.4014 N.ar    1  UNL1       -0.2631
     19 H         143.0490  145.1103  158.9580 H       1  UNL1        0.1903
     20 C         140.5574  146.4962  155.1057 C.3     1  UNL1        0.0372
     21 C         139.4088  147.4101  155.4149 C.3     1  UNL1        0.0060
     22 C         140.5506  146.5672  153.6074 C.3     1  UNL1        0.0060
     23 C         141.5651  145.7171  154.3135 C.3     1  UNL1        0.0060
     24 O         141.0351  139.8888  166.6995 O.3     1  UNL1       -0.4363
     25 C         144.4258  142.7367  169.8048 C.3     1  UNL1        0.0175
     26 C         143.0435  142.1895  170.0045 C.3     1  UNL1        0.0589
     27 C         142.3740  141.4226  168.9029 C.3     1  UNL1        0.0481
     28 C         140.9917  140.8755  169.1026 C.ar    1  UNL1        0.0476
     29 C         140.2789  141.0952  170.4039 C.ar    1  UNL1        0.0772
     30 N         138.8966  140.5480  170.6036 N.ar    1  UNL1       -0.2271
     31 C         138.2272  139.7811  169.5020 C.ar    1  UNL1        0.2012
     32 N         138.9400  139.5614  168.2006 N.ar    1  UNL1       -0.1893
     33 C         140.3223  140.1085  168.0009 C.ar    1  UNL1        0.2282
     34 C         140.9484  141.8621  171.5056 C.3     1  UNL1        0.1150
     35 N         142.3306  142.4093  171.3058 N.3     1  UNL1       -0.2933
     36 H         142.9166  142.0024  172.0349 H       1  UNL1        0.1236
@<TRIPOS>BOND
     1    26    25    1
     2    26    27    1
     3    27    28    1
     4    28    29   ar
     5    29    30   ar
     6    30    31   ar
     7    31    32   ar
     8    32    33   ar
     9    33    24    1
    10    24     1    1
    11     1     2   ar
    12     2     3   ar
    13     3     4   ar
    14     4     5   ar
    15     5     6   ar
    16     6     7   ar
    17     7     8   ar
    18     8     9   am
    19     9    10    2
    20     9    11   am
    21    11    14    1
    22    14    15   ar
    23    15    16   ar
    24    16    20    1
    25    20    21    1
    26    20    22    1
    27    22    23    1
    28    16    17   ar
    29    17    18   ar
    30     5    12   ar
    31    29    34    1
    32    34    35    1
    33    35    26    1
    34    33    28   ar
    35    12     1   ar
    36     8     4   ar
    37    18    14   ar
    38    23    20    1
    39    11    13    1
    40    18    19    1
    41    35    36    1
@<TRIPOS>MOLECULE
*****
 36 41 0 0 0
SMALL
GASTEIGER

@<TRIPOS>ATOM
      1 C         142.7398  142.1695  165.6243 C.ar    1  UNL1        0.1473
      2 C         143.4680  141.9963  164.3244 C.ar    1  UNL1        0.0390
      3 C         143.0081  142.7354  163.1029 C.ar    1  UNL1        0.0208
      4 C         141.8201  143.6478  163.1813 C.ar    1  UNL1        0.0683
      5 C         141.0919  143.8209  164.4812 C.ar    1  UNL1        0.0208
      6 C         139.9620  144.7813  164.2552 C.ar    1  UNL1        0.0207
      7 C         139.9919  145.2017  162.8156 C.ar    1  UNL1        0.0842
      8 N         141.1402  144.5011  162.1519 N.ar    1  UNL1       -0.2609
      9 C         141.5388  144.6310  160.7117 C.2     1  UNL1        0.3248
     10 O         142.7165  143.8643  160.1873 O.2     1  UNL1       -0.2488
     11 N         140.7595  145.5277  159.7958 N.am    1  UNL1       -0.2514
     12 C         141.5518  143.0818  165.7027 C.ar    1  UNL1        0.0390
     13 H         139.9865  146.0309  160.1399 H       1  UNL1        0.1580
     14 C         141.1580  145.6577  158.3555 C.ar    1  UNL1        0.1299
     15 C         140.3014  146.1978  157.2490 C.ar    1  UNL1        0.0503
     16 C         141.0971  146.1442  155.9785 C.ar    1  UNL1        0.0804
     17 N         142.4454  145.5710  156.2999 N.ar    1  UNL1       -0.1760
     18 N         142.4831  145.2702  157.7690 N.ar    1  UNL1       -0.2631
     19 H         143.2440  144.8860  158.2617 H       1  UNL1        0.1903
     20 C         140.6270  146.5863  154.6244 C.3     1  UNL1        0.0372
     21 C         139.4454  147.4219  155.0190 C.3     1  UNL1        0.0060
     22 C         140.5672  146.7382  153.1334 C.3     1  UNL1        0.0060
     23 C         141.6454  145.9043  153.7597 C.3     1  UNL1        0.0060
     24 O         143.1997  141.4303  166.8459 O.3     1  UNL1       -0.4363
     25 C         138.4381  138.8797  167.1120 C.3     1  UNL1        0.0175
     26 C         139.1950  139.7701  168.0524 C.3     1  UNL1        0.0589
     27 C         140.5299  140.3235  167.6502 C.3     1  UNL1        0.0481
     28 C         141.2868  141.2138  168.5906 C.ar    1  UNL1        0.0476
     29 C         140.7088  141.5508  169.9331 C.ar    1  UNL1        0.0772
     30 N         141.4658  142.4412  170.8734 N.ar    1  UNL1       -0.2271
     31 C         142.8007  142.9946  170.4713 C.ar    1  UNL1        0.2012
     32 N         143.3787  142.6576  169.1287 N.ar    1  UNL1       -0.1893
     33 C         142.6218  141.7673  168.1884 C.ar    1  UNL1        0.2282
     34 C         139.3739  140.9974  170.3352 C.3     1  UNL1        0.1150
     35 N         138.6170  140.1070  169.3949 N.3     1  UNL1       -0.2933
     36 H         137.7175  140.5564  169.2238 H       1  UNL1        0.1236
@<TRIPOS>BOND
     1    26    25    1
     2    26    27    1
     3    27    28    1
     4    28    29   ar
     5    29    30   ar
     6    30    31   ar
     7    31    32   ar
     8    32    33   ar
     9    33    24    1
    10    24     1    1
    11     1     2   ar
    12     2     3   ar
    13     3     4   ar
    14     4     5   ar
    15     5     6   ar
    16     6     7   ar
    17     7     8   ar
    18     8     9   am
    19     9    10    2
    20     9    11   am
    21    11    14    1
    22    14    15   ar
    23    15    16   ar
    24    16    20    1
    25    20    21    1
    26    20    22    1
    27    22    23    1
    28    16    17   ar
    29    17    18   ar
    30     5    12   ar
    31    29    34    1
    32    34    35    1
    33    35    26    1
    34    33    28   ar
    35    12     1   ar
    36     8     4   ar
    37    18    14   ar
    38    23    20    1
    39    11    13    1
    40    18    19    1
    41    35    36    1
@<TRIPOS>MOLECULE
*****
 36 41 0 0 0
SMALL
GASTEIGER

@<TRIPOS>ATOM
      1 C         139.2357  139.3662  165.9291 C.ar    1  UNL1        0.1473
      2 C         140.5802  139.9639  165.6374 C.ar    1  UNL1        0.0390
      3 C         141.3210  140.7038  166.7115 C.ar    1  UNL1        0.0208
      4 C         140.7173  140.8460  168.0773 C.ar    1  UNL1        0.0683
      5 C         139.3728  140.2483  168.3689 C.ar    1  UNL1        0.0208
      6 C         139.0326  140.5480  169.7987 C.ar    1  UNL1        0.0207
      7 C         140.1668  141.3310  170.3908 C.ar    1  UNL1        0.0842
      8 N         141.2080  141.5151  169.3269 N.ar    1  UNL1       -0.2609
      9 C         142.5111  142.2409  169.4848 C.2     1  UNL1        0.3248
     10 O         143.4574  142.3443  168.3255 O.2     1  UNL1       -0.2488
     11 N         142.8681  142.8634  170.8021 N.am    1  UNL1       -0.2514
     12 C         138.6320  139.5084  167.2948 C.ar    1  UNL1        0.0390
     13 H         142.2471  142.7956  171.5630 H       1  UNL1        0.1580
     14 C         144.1713  143.5893  170.9600 C.ar    1  UNL1        0.1299
     15 C         144.4114  144.7923  171.8232 C.ar    1  UNL1        0.0503
     16 C         145.8516  145.1861  171.6792 C.ar    1  UNL1        0.0804
     17 N         146.5015  144.2264  170.7270 N.ar    1  UNL1       -0.1760
     18 N         145.4630  143.2395  170.2825 N.ar    1  UNL1       -0.2631
     19 H         145.6044  142.4933  169.6561 H       1  UNL1        0.1903
     20 C         146.5239  146.3373  172.3667 C.3     1  UNL1        0.0372
     21 C         145.9755  147.4778  171.5613 C.3     1  UNL1        0.0060
     22 C         147.3866  147.0926  173.3337 C.3     1  UNL1        0.0060
     23 C         147.3058  145.5967  173.4108 C.3     1  UNL1        0.0060
     24 O         138.4949  138.6262  164.8549 O.3     1  UNL1       -0.4363
     25 C         137.2435  143.8652  164.3677 C.3     1  UNL1        0.0175
     26 C         137.7239  142.8170  163.4083 C.3     1  UNL1        0.0589
     27 C         137.9809  141.4201  163.8904 C.3     1  UNL1        0.0481
     28 C         138.4614  140.3720  162.9310 C.ar    1  UNL1        0.0476
     29 C         138.6848  140.7207  161.4893 C.ar    1  UNL1        0.0772
     30 N         139.1652  139.6726  160.5299 N.ar    1  UNL1       -0.2271
     31 C         139.4222  138.2757  161.0120 C.ar    1  UNL1        0.2012
     32 N         139.1988  137.9268  162.4538 N.ar    1  UNL1       -0.1893
     33 C         138.7184  138.9750  163.4132 C.ar    1  UNL1        0.2282
     34 C         138.4278  142.1176  161.0071 C.3     1  UNL1        0.1150
     35 N         137.9474  143.1658  161.9666 N.3     1  UNL1       -0.2933
     36 H         137.0576  143.5098  161.6056 H       1  UNL1        0.1236
@<TRIPOS>BOND
     1    26    25    1
     2    26    27    1
     3    27    28    1
     4    28    29   ar
     5    29    30   ar
     6    30    31   ar
     7    31    32   ar
     8    32    33   ar
     9    33    24    1
    10    24     1    1
    11     1     2   ar
    12     2     3   ar
    13     3     4   ar
    14     4     5   ar
    15     5     6   ar
    16     6     7   ar
    17     7     8   ar
    18     8     9   am
    19     9    10    2
    20     9    11   am
    21    11    14    1
    22    14    15   ar
    23    15    16   ar
    24    16    20    1
    25    20    21    1
    26    20    22    1
    27    22    23    1
    28    16    17   ar
    29    17    18   ar
    30     5    12   ar
    31    29    34    1
    32    34    35    1
    33    35    26    1
    34    33    28   ar
    35    12     1   ar
    36     8     4   ar
    37    18    14   ar
    38    23    20    1
    39    11    13    1
    40    18    19    1
    41    35    36    1
@<TRIPOS>MOLECULE
*****
 36 41 0 0 0
SMALL
GASTEIGER

@<TRIPOS>ATOM
      1 C         142.4801  137.7992  158.3480 C.ar    1  UNL1        0.1473
      2 C         142.9526  137.5565  159.7508 C.ar    1  UNL1        0.0390
      3 C         142.0763  137.9238  160.9115 C.ar    1  UNL1        0.0208
      4 C         140.7276  138.5338  160.6693 C.ar    1  UNL1        0.0683
      5 C         140.2551  138.7765  159.2665 C.ar    1  UNL1        0.0208
      6 C         138.8873  139.3882  159.3374 C.ar    1  UNL1        0.0207
      7 C         138.5144  139.5235  160.7840 C.ar    1  UNL1        0.0842
      8 N         139.6518  138.9955  161.6071 N.ar    1  UNL1       -0.2609
      9 C         139.7042  138.9390  163.1052 C.2     1  UNL1        0.3248
     10 O         140.9149  138.3811  163.7928 O.2     1  UNL1       -0.2488
     11 N         138.5458  139.4406  163.9156 N.am    1  UNL1       -0.2514
     12 C         141.1314  138.4092  158.1058 C.ar    1  UNL1        0.0390
     13 H         137.7511  139.8068  163.4643 H       1  UNL1        0.1580
     14 C         138.5982  139.3841  165.4136 C.ar    1  UNL1        0.1299
     15 C         139.4812  140.2148  166.2969 C.ar    1  UNL1        0.0503
     16 C         139.2056  139.8312  167.7205 C.ar    1  UNL1        0.0804
     17 N         138.1521  138.7633  167.7171 N.ar    1  UNL1       -0.1760
     18 N         137.7767  138.4870  166.2914 N.ar    1  UNL1       -0.2631
     19 H         137.1086  137.8319  165.9855 H       1  UNL1        0.1903
     20 C         139.8671  140.4132  168.9344 C.3     1  UNL1        0.0372
     21 C         141.2123  140.7491  168.3621 C.3     1  UNL1        0.0060
     22 C         140.0616  140.8785  170.3471 C.3     1  UNL1        0.0060
     23 C         138.7517  140.2793  169.9284 C.3     1  UNL1        0.0060
     24 O         143.3565  137.4318  157.1873 O.3     1  UNL1       -0.4363
     25 C         144.9151  132.3087  157.9451 C.3     1  UNL1        0.0175
     26 C         144.1014  133.0036  156.8939 C.3     1  UNL1        0.0589
     27 C         143.8531  134.4797  156.9917 C.3     1  UNL1        0.0481
     28 C         143.0394  135.1746  155.9405 C.ar    1  UNL1        0.0476
     29 C         142.4740  134.3935  154.7916 C.ar    1  UNL1        0.0772
     30 N         141.6603  135.0884  153.7404 N.ar    1  UNL1       -0.2271
     31 C         141.4120  136.5645  153.8382 C.ar    1  UNL1        0.2012
     32 N         141.9774  137.3457  154.9872 N.ar    1  UNL1       -0.1893
     33 C         142.7911  136.6507  156.0384 C.ar    1  UNL1        0.2282
     34 C         142.7223  132.9175  154.6938 C.3     1  UNL1        0.1150
     35 N         143.5360  132.2225  155.7450 N.3     1  UNL1       -0.2933
     36 H         144.3257  131.7886  155.2670 H       1  UNL1        0.1236
@<TRIPOS>BOND
     1    26    25    1
     2    26    27    1
     3    27    28    1
     4    28    29   ar
     5    29    30   ar
     6    30    31   ar
     7    31    32   ar
     8    32    33   ar
     9    33    24    1
    10    24     1    1
    11     1     2   ar
    12     2     3   ar
    13     3     4   ar
    14     4     5   ar
    15     5     6   ar
    16     6     7   ar
    17     7     8   ar
    18     8     9   am
    19     9    10    2
    20     9    11   am
    21    11    14    1
    22    14    15   ar
    23    15    16   ar
    24    16    20    1
    25    20    21    1
    26    20    22    1
    27    22    23    1
    28    16    17   ar
    29    17    18   ar
    30     5    12   ar
    31    29    34    1
    32    34    35    1
    33    35    26    1
    34    33    28   ar
    35    12     1   ar
    36     8     4   ar
    37    18    14   ar
    38    23    20    1
    39    11    13    1
    40    18    19    1
    41    35    36    1
@<TRIPOS>MOLECULE
*****
 36 41 0 0 0
SMALL
GASTEIGER

@<TRIPOS>ATOM
      1 C         140.9949  140.4895  164.0123 C.ar    1  UNL1        0.1473
      2 C         142.0008  139.4462  163.6255 C.ar    1  UNL1        0.0390
      3 C         142.0594  138.9487  162.2116 C.ar    1  UNL1        0.0208
      4 C         141.1122  139.4946  161.1846 C.ar    1  UNL1        0.0683
      5 C         140.1063  140.5379  161.5715 C.ar    1  UNL1        0.0208
      6 C         139.3075  140.8869  160.3508 C.ar    1  UNL1        0.0207
      7 C         139.8197  140.0592  159.2094 C.ar    1  UNL1        0.0842
      8 N         140.9350  139.1987  159.7248 N.ar    1  UNL1       -0.2609
      9 C         141.7331  138.2151  158.9214 C.2     1  UNL1        0.3248
     10 O         142.8239  137.4210  159.5769 O.2     1  UNL1       -0.2488
     11 N         141.4404  138.0255  157.4624 N.am    1  UNL1       -0.2514
     12 C         140.0477  141.0354  162.9854 C.ar    1  UNL1        0.0390
     13 H         140.7245  138.5466  157.0322 H       1  UNL1        0.1580
     14 C         142.2385  137.0418  156.6590 C.ar    1  UNL1        0.1299
     15 C         141.7031  135.8131  155.9854 C.ar    1  UNL1        0.0503
     16 C         142.8458  135.1261  155.2982 C.ar    1  UNL1        0.0804
     17 N         144.0874  135.9301  155.5472 N.ar    1  UNL1       -0.1760
     18 N         143.7121  137.1141  156.3882 N.ar    1  UNL1       -0.2631
     19 H         144.3252  137.8155  156.7065 H       1  UNL1        0.1903
     20 C         142.7617  133.8577  154.5019 C.3     1  UNL1        0.0372
     21 C         142.0142  134.3539  153.2998 C.3     1  UNL1        0.0060
     22 C         142.9372  132.4170  154.1231 C.3     1  UNL1        0.0060
     23 C         143.4800  132.9210  155.4275 C.3     1  UNL1        0.0060
     24 O         140.9363  140.9870  165.4263 O.3     1  UNL1       -0.4363
     25 C         142.2378  142.9844  170.2808 C.3     1  UNL1        0.0175
     26 C         141.1976  142.0170  169.7990 C.3     1  UNL1        0.0589
     27 C         141.1105  141.6737  168.3415 C.3     1  UNL1        0.0481
     28 C         140.0704  140.7062  167.8597 C.ar    1  UNL1        0.0476
     29 C         139.1173  140.0821  168.8354 C.ar    1  UNL1        0.0772
     30 N         138.0772  139.1146  168.3537 N.ar    1  UNL1       -0.2271
     31 C         137.9901  138.7713  166.8961 C.ar    1  UNL1        0.2012
     32 N         138.9431  139.3954  165.9203 N.ar    1  UNL1       -0.1893
     33 C         139.9833  140.3629  166.4020 C.ar    1  UNL1        0.2282
     34 C         139.2045  140.4254  170.2930 C.3     1  UNL1        0.1150
     35 N         140.2446  141.3929  170.7748 N.3     1  UNL1       -0.2933
     36 H         140.8108  140.8976  171.4636 H       1  UNL1        0.1236
@<TRIPOS>BOND
     1    26    25    1
     2    26    27    1
     3    27    28    1
     4    28    29   ar
     5    29    30   ar
     6    30    31   ar
     7    31    32   ar
     8    32    33   ar
     9    33    24    1
    10    24     1    1
    11     1     2   ar
    12     2     3   ar
    13     3     4   ar
    14     4     5   ar
    15     5     6   ar
    16     6     7   ar
    17     7     8   ar
    18     8     9   am
    19     9    10    2
    20     9    11   am
    21    11    14    1
    22    14    15   ar
    23    15    16   ar
    24    16    20    1
    25    20    21    1
    26    20    22    1
    27    22    23    1
    28    16    17   ar
    29    17    18   ar
    30     5    12   ar
    31    29    34    1
    32    34    35    1
    33    35    26    1
    34    33    28   ar
    35    12     1   ar
    36     8     4   ar
    37    18    14   ar
    38    23    20    1
    39    11    13    1
    40    18    19    1
    41    35    36    1
@<TRIPOS>MOLECULE
*****
 36 41 0 0 0
SMALL
GASTEIGER

@<TRIPOS>ATOM
      1 C         138.2725  141.5992  159.4332 C.ar    1  UNL1        0.1473
      2 C         138.3530  142.4869  160.6396 C.ar    1  UNL1        0.0390
      3 C         138.4839  141.8842  162.0069 C.ar    1  UNL1        0.0208
      4 C         138.5343  140.3937  162.1678 C.ar    1  UNL1        0.0683
      5 C         138.4538  139.5060  160.9613 C.ar    1  UNL1        0.0208
      6 C         138.5285  138.0823  161.4277 C.ar    1  UNL1        0.0207
      7 C         138.6551  138.0901  162.9223 C.ar    1  UNL1        0.0842
      8 N         138.6587  139.5186  163.3797 N.ar    1  UNL1       -0.2609
      9 C         138.7676  139.9895  164.7997 C.2     1  UNL1        0.3248
     10 O         138.7573  141.4579  165.1059 O.2     1  UNL1       -0.2488
     11 N         138.8867  138.9919  165.9136 N.am    1  UNL1       -0.2514
     12 C         138.3229  140.1088  159.5940 C.ar    1  UNL1        0.0390
     13 H         138.8934  138.0281  165.7127 H       1  UNL1        0.1580
     14 C         138.9956  139.4627  167.3336 C.ar    1  UNL1        0.1299
     15 C         140.0893  140.3212  167.8964 C.ar    1  UNL1        0.0503
     16 C         139.7996  140.5468  169.3508 C.ar    1  UNL1        0.0804
     17 N         138.5268  139.8277  169.6868 N.ar    1  UNL1       -0.1760
     18 N         138.0299  139.1577  168.4402 N.ar    1  UNL1       -0.2631
     19 H         137.2133  138.6133  168.3619 H       1  UNL1        0.1903
     20 C         140.6358  141.3504  170.3021 C.3     1  UNL1        0.0372
     21 C         139.7901  142.5843  170.4137 C.3     1  UNL1        0.0060
     22 C         141.7656  141.7256  171.2146 C.3     1  UNL1        0.0060
     23 C         141.7718  140.3956  170.5208 C.3     1  UNL1        0.0060
     24 O         138.1416  142.2020  158.0658 O.3     1  UNL1       -0.4363
     25 C         133.4016  140.5036  156.0916 C.3     1  UNL1        0.0175
     26 C         134.8299  140.3146  155.6742 C.3     1  UNL1        0.0589
     27 C         135.9338  140.9437  156.4714 C.3     1  UNL1        0.0481
     28 C         137.3621  140.7546  156.0540 C.ar    1  UNL1        0.0476
     29 C         137.6865  139.9364  154.8394 C.ar    1  UNL1        0.0772
     30 N         139.1148  139.7473  154.4221 N.ar    1  UNL1       -0.2271
     31 C         140.2187  140.3765  155.2192 C.ar    1  UNL1        0.2012
     32 N         139.8943  141.1947  156.4339 N.ar    1  UNL1       -0.1893
     33 C         138.4660  141.3838  156.8513 C.ar    1  UNL1        0.2282
     34 C         136.5827  139.3073  154.0422 C.3     1  UNL1        0.1150
     35 N         135.1543  139.4963  154.4596 N.3     1  UNL1       -0.2933
     36 H         134.7688  138.5657  154.6199 H       1  UNL1        0.1236
@<TRIPOS>BOND
     1    26    25    1
     2    26    27    1
     3    27    28    1
     4    28    29   ar
     5    29    30   ar
     6    30    31   ar
     7    31    32   ar
     8    32    33   ar
     9    33    24    1
    10    24     1    1
    11     1     2   ar
    12     2     3   ar
    13     3     4   ar
    14     4     5   ar
    15     5     6   ar
    16     6     7   ar
    17     7     8   ar
    18     8     9   am
    19     9    10    2
    20     9    11   am
    21    11    14    1
    22    14    15   ar
    23    15    16   ar
    24    16    20    1
    25    20    21    1
    26    20    22    1
    27    22    23    1
    28    16    17   ar
    29    17    18   ar
    30     5    12   ar
    31    29    34    1
    32    34    35    1
    33    35    26    1
    34    33    28   ar
    35    12     1   ar
    36     8     4   ar
    37    18    14   ar
    38    23    20    1
    39    11    13    1
    40    18    19    1
    41    35    36    1
@<TRIPOS>MOLECULE
*****
 36 41 0 0 0
SMALL
GASTEIGER

@<TRIPOS>ATOM
      1 C         141.5821  143.2088  160.3998 C.ar    1  UNL1        0.1473
      2 C         140.7294  141.9752  160.3650 C.ar    1  UNL1        0.0390
      3 C         141.1620  140.7869  159.5583 C.ar    1  UNL1        0.0208
      4 C         142.4473  140.8322  158.7865 C.ar    1  UNL1        0.0683
      5 C         143.3001  142.0657  158.8213 C.ar    1  UNL1        0.0208
      6 C         144.5069  141.8192  157.9653 C.ar    1  UNL1        0.0207
      7 C         144.4001  140.4333  157.4014 C.ar    1  UNL1        0.0842
      8 N         143.1272  139.8233  157.9090 N.ar    1  UNL1       -0.2609
      9 C         142.6227  138.4462  157.5942 C.2     1  UNL1        0.3248
     10 O         141.3253  137.9711  158.1782 O.2     1  UNL1       -0.2488
     11 N         143.4157  137.5441  156.6955 N.am    1  UNL1       -0.2514
     12 C         142.8674  143.2540  159.6279 C.ar    1  UNL1        0.0390
     13 H         144.2672  137.8560  156.3122 H       1  UNL1        0.1580
     14 C         142.9112  136.1670  156.3808 C.ar    1  UNL1        0.1299
     15 C         143.5912  134.8772  156.7327 C.ar    1  UNL1        0.0503
     16 C         142.7384  133.7509  156.2283 C.ar    1  UNL1        0.0804
     17 N         141.5314  134.3448  155.5647 N.ar    1  UNL1       -0.1760
     18 N         141.6381  135.8380  155.6589 N.ar    1  UNL1       -0.2631
     19 H         140.9870  136.4880  155.3085 H       1  UNL1        0.1903
     20 C         143.0398  132.2878  156.3637 C.3     1  UNL1        0.0372
     21 C         144.2720  132.3535  157.2166 C.3     1  UNL1        0.0060
     22 C         142.9132  130.8018  156.2030 C.3     1  UNL1        0.0060
     23 C         141.9122  131.7139  155.5579 C.3     1  UNL1        0.0060
     24 O         141.1494  144.3971  161.2065 O.3     1  UNL1       -0.4363
     25 C         143.9023  142.5577  165.4829 C.3     1  UNL1        0.0175
     26 C         142.4605  142.8926  165.2397 C.3     1  UNL1        0.0589
     27 C         142.0235  143.3941  163.8954 C.3     1  UNL1        0.0481
     28 C         140.5817  143.7289  163.6522 C.ar    1  UNL1        0.0476
     29 C         139.5770  143.5622  164.7534 C.ar    1  UNL1        0.0772
     30 N         138.1352  143.8971  164.5102 N.ar    1  UNL1       -0.2271
     31 C         137.6981  144.3986  163.1658 C.ar    1  UNL1        0.2012
     32 N         138.7029  144.5653  162.0645 N.ar    1  UNL1       -0.1893
     33 C         140.1447  144.2304  162.3077 C.ar    1  UNL1        0.2282
     34 C         140.0140  143.0607  166.0978 C.3     1  UNL1        0.1150
     35 N         141.4558  142.7259  166.3409 N.3     1  UNL1       -0.2933
     36 H         141.4871  141.7460  166.6223 H       1  UNL1        0.1236
@<TRIPOS>BOND
     1    26    25    1
     2    26    27    1
     3    27    28    1
     4    28    29   ar
     5    29    30   ar
     6    30    31   ar
     7    31    32   ar
     8    32    33   ar
     9    33    24    1
    10    24     1    1
    11     1     2   ar
    12     2     3   ar
    13     3     4   ar
    14     4     5   ar
    15     5     6   ar
    16     6     7   ar
    17     7     8   ar
    18     8     9   am
    19     9    10    2
    20     9    11   am
    21    11    14    1
    22    14    15   ar
    23    15    16   ar
    24    16    20    1
    25    20    21    1
    26    20    22    1
    27    22    23    1
    28    16    17   ar
    29    17    18   ar
    30     5    12   ar
    31    29    34    1
    32    34    35    1
    33    35    26    1
    34    33    28   ar
    35    12     1   ar
    36     8     4   ar
    37    18    14   ar
    38    23    20    1
    39    11    13    1
    40    18    19    1
    41    35    36    1
@<TRIPOS>MOLECULE
*****
 36 41 0 0 0
SMALL
GASTEIGER

@<TRIPOS>ATOM
      1 C         143.7791  142.2320  162.6095 C.ar    1  UNL1        0.1473
      2 C         143.2966  140.8118  162.6258 C.ar    1  UNL1        0.0390
      3 C         143.2515  140.0204  161.3525 C.ar    1  UNL1        0.0208
      4 C         143.6889  140.6491  160.0628 C.ar    1  UNL1        0.0683
      5 C         144.1714  142.0693  160.0465 C.ar    1  UNL1        0.0208
      6 C         144.5359  142.4188  158.6340 C.ar    1  UNL1        0.0207
      7 C         144.2787  141.2146  157.7774 C.ar    1  UNL1        0.0842
      8 N         143.7552  140.1209  158.6604 N.ar    1  UNL1       -0.2609
      9 C         143.3663  138.7412  158.2187 C.2     1  UNL1        0.3248
     10 O         142.8562  137.7487  159.2210 O.2     1  UNL1       -0.2488
     11 N         143.4875  138.3540  156.7745 N.am    1  UNL1       -0.2514
     12 C         144.2165  142.8607  161.3198 C.ar    1  UNL1        0.0390
     13 H         143.8223  139.0054  156.1166 H       1  UNL1        0.1580
     14 C         143.0986  136.9743  156.3327 C.ar    1  UNL1        0.1299
     15 C         142.7732  136.5569  154.9292 C.ar    1  UNL1        0.0503
     16 C         142.4403  135.0944  154.9460 C.ar    1  UNL1        0.0804
     17 N         142.5600  134.6079  156.3599 N.ar    1  UNL1       -0.1760
     18 N         142.9669  135.7698  157.2169 N.ar    1  UNL1       -0.2631
     19 H         143.1205  135.7459  158.1891 H       1  UNL1        0.1903
     20 C         142.0553  134.2641  153.7576 C.3     1  UNL1        0.0372
     21 C         142.1395  132.8928  154.3596 C.3     1  UNL1        0.0060
     22 C         141.6410  133.9100  152.3601 C.3     1  UNL1        0.0060
     23 C         141.8373  135.3470  152.7428 C.3     1  UNL1        0.0060
     24 O         143.8242  143.0235  163.8830 O.3     1  UNL1       -0.4363
     25 C         139.8667  145.9967  161.7038 C.3     1  UNL1        0.0175
     26 C         139.9955  145.2053  162.9716 C.3     1  UNL1        0.0589
     27 C         141.2717  144.4780  163.2754 C.3     1  UNL1        0.0481
     28 C         141.4004  143.6867  164.5431 C.ar    1  UNL1        0.0476
     29 C         140.2530  143.6225  165.5070 C.ar    1  UNL1        0.0772
     30 N         140.3817  142.8312  166.7747 N.ar    1  UNL1       -0.2271
     31 C         141.6579  142.1039  167.0786 C.ar    1  UNL1        0.2012
     32 N         142.8054  142.1680  166.1146 N.ar    1  UNL1       -0.1893
     33 C         142.6767  142.9594  164.8469 C.ar    1  UNL1        0.2282
     34 C         138.9768  144.3498  165.2032 C.3     1  UNL1        0.1150
     35 N         138.8480  145.1412  163.9355 N.3     1  UNL1       -0.2933
     36 H         138.6383  146.1015  164.2079 H       1  UNL1        0.1236
@<TRIPOS>BOND
     1    26    25    1
     2    26    27    1
     3    27    28    1
     4    28    29   ar
     5    29    30   ar
     6    30    31   ar
     7    31    32   ar
     8    32    33   ar
     9    33    24    1
    10    24     1    1
    11     1     2   ar
    12     2     3   ar
    13     3     4   ar
    14     4     5   ar
    15     5     6   ar
    16     6     7   ar
    17     7     8   ar
    18     8     9   am
    19     9    10    2
    20     9    11   am
    21    11    14    1
    22    14    15   ar
    23    15    16   ar
    24    16    20    1
    25    20    21    1
    26    20    22    1
    27    22    23    1
    28    16    17   ar
    29    17    18   ar
    30     5    12   ar
    31    29    34    1
    32    34    35    1
    33    35    26    1
    34    33    28   ar
    35    12     1   ar
    36     8     4   ar
    37    18    14   ar
    38    23    20    1
    39    11    13    1
    40    18    19    1
    41    35    36    1
@<TRIPOS>MOLECULE
*****
 36 41 0 0 0
SMALL
GASTEIGER

@<TRIPOS>ATOM
      1 C         143.2078  143.8362  164.2704 C.ar    1  UNL1        0.1473
      2 C         143.8982  143.8514  162.9388 C.ar    1  UNL1        0.0390
      3 C         143.1557  144.2968  161.7140 C.ar    1  UNL1        0.0208
      4 C         141.7226  144.7268  161.8207 C.ar    1  UNL1        0.0683
      5 C         141.0322  144.7116  163.1523 C.ar    1  UNL1        0.0208
      6 C         139.6242  145.1876  162.9498 C.ar    1  UNL1        0.0207
      7 C         139.4444  145.4970  161.4931 C.ar    1  UNL1        0.0842
      8 N         140.7413  145.2122  160.7953 N.ar    1  UNL1       -0.2609
      9 C         141.0099  145.3829  159.3295 C.2     1  UNL1        0.3248
     10 O         142.3635  145.0560  158.7719 O.2     1  UNL1       -0.2488
     11 N         139.9247  145.8805  158.4211 N.am    1  UNL1       -0.2514
     12 C         141.7748  144.2663  164.3771 C.ar    1  UNL1        0.0390
     13 H         139.0363  146.0950  158.7871 H       1  UNL1        0.1580
     14 C         140.1932  146.0512  156.9552 C.ar    1  UNL1        0.1299
     15 C         139.9988  147.3107  156.1641 C.ar    1  UNL1        0.0503
     16 C         140.3887  147.0302  154.7431 C.ar    1  UNL1        0.0804
     17 N         140.8240  145.5974  154.6560 N.ar    1  UNL1       -0.1760
     18 N         140.7032  144.9923  156.0232 N.ar    1  UNL1       -0.2631
     19 H         140.9205  144.0633  156.2661 H       1  UNL1        0.1903
     20 C         140.3501  148.0105  153.6083 C.3     1  UNL1        0.0372
     21 C         141.0985  147.2327  152.5667 C.3     1  UNL1        0.0060
     22 C         140.0516  149.2608  152.8353 C.3     1  UNL1        0.0060
     23 C         139.5883  149.1287  154.2559 C.3     1  UNL1        0.0060
     24 O         143.9504  143.3908  165.4952 O.3     1  UNL1       -0.4363
     25 C         143.8442  139.1446  162.1474 C.3     1  UNL1        0.0175
     26 C         143.4869  139.3400  163.5910 C.3     1  UNL1        0.0589
     27 C         143.6414  140.6903  164.2258 C.3     1  UNL1        0.0481
     28 C         143.2841  140.8857  165.6694 C.ar    1  UNL1        0.0476
     29 C         142.7723  139.7309  166.4783 C.ar    1  UNL1        0.0772
     30 N         142.4150  139.9263  167.9220 N.ar    1  UNL1       -0.2271
     31 C         142.5695  141.2765  168.5567 C.ar    1  UNL1        0.2012
     32 N         143.0814  142.4315  167.7478 N.ar    1  UNL1       -0.1893
     33 C         143.4386  142.2360  166.3041 C.ar    1  UNL1        0.2282
     34 C         142.6178  138.3806  165.8436 C.3     1  UNL1        0.1150
     35 N         142.9751  138.1852  164.3999 N.3     1  UNL1       -0.2933
     36 H         142.1343  137.8474  163.9317 H       1  UNL1        0.1236
@<TRIPOS>BOND
     1    26    25    1
     2    26    27    1
     3    27    28    1
     4    28    29   ar
     5    29    30   ar
     6    30    31   ar
     7    31    32   ar
     8    32    33   ar
     9    33    24    1
    10    24     1    1
    11     1     2   ar
    12     2     3   ar
    13     3     4   ar
    14     4     5   ar
    15     5     6   ar
    16     6     7   ar
    17     7     8   ar
    18     8     9   am
    19     9    10    2
    20     9    11   am
    21    11    14    1
    22    14    15   ar
    23    15    16   ar
    24    16    20    1
    25    20    21    1
    26    20    22    1
    27    22    23    1
    28    16    17   ar
    29    17    18   ar
    30     5    12   ar
    31    29    34    1
    32    34    35    1
    33    35    26    1
    34    33    28   ar
    35    12     1   ar
    36     8     4   ar
    37    18    14   ar
    38    23    20    1
    39    11    13    1
    40    18    19    1
    41    35    36    1
