@<TRIPOS>MOLECULE
*****
 32 36 0 0 0
SMALL
GASTEIGER

@<TRIPOS>ATOM
      1 C         140.7715  140.5922  169.6728 C.ar    1  UNL1        0.0871
      2 C         141.6057  141.6060  170.3981 C.ar    1  UNL1        0.0120
      3 C         142.7361  142.2922  169.6900 C.ar    1  UNL1        0.0534
      4 C         143.0323  141.9645  168.2566 C.ar    1  UNL1        0.0037
      5 C         142.1981  140.9506  167.5312 C.ar    1  UNL1        0.0194
      6 C         141.0677  140.2645  168.2393 C.ar    1  UNL1        0.1392
      7 O         140.4230  139.3158  167.2727 O.3     1  UNL1       -0.4757
      8 C         141.1549  139.4156  165.9672 C.3     1  UNL1        0.2090
      9 C         142.2520  140.4260  166.1270 C.3     1  UNL1        0.0904
     10 C         143.2311  140.8393  165.0684 C.ar    1  UNL1       -0.0147
     11 C         143.1079  142.1849  164.4170 C.ar    1  UNL1       -0.0038
     12 C         144.0869  142.5982  163.3584 C.ar    1  UNL1       -0.0003
     13 C         145.1892  141.6659  162.9512 C.ar    1  UNL1       -0.0000
     14 C         145.3124  140.3204  163.6026 C.ar    1  UNL1       -0.0003
     15 C         144.3333  139.9071  164.6612 C.ar    1  UNL1       -0.0038
     16 C         137.1494  139.1747  170.4608 C.3     1  UNL1        0.1109
     17 N         138.2798  139.8609  169.7527 N.am    1  UNL1       -0.2991
     18 C         139.6411  139.9060  170.3809 C.2     1  UNL1        0.2488
     19 O         139.8721  139.2649  171.7171 O.2     1  UNL1       -0.2700
     20 H         138.1282  140.2816  168.8756 H       1  UNL1        0.1498
     21 C         143.5703  143.3061  170.4155 C.2     1  UNL1        0.2458
     22 O         142.9080  144.3838  171.2216 O.2     1  UNL1       -0.2701
     23 N         145.0667  143.2423  170.3347 N.am    1  UNL1       -0.3023
     24 H         145.5014  142.5349  169.8056 H       1  UNL1        0.1497
     25 C         145.9009  144.2561  171.0601 C.3     1  UNL1        0.0769
     26 C         146.1053  145.6587  171.5508 C.3     1  UNL1        0.0517
     27 C         146.5785  146.9472  172.1557 C.3     1  UNL1        0.1439
     28 O         147.9071  146.6943  172.8046 O.3     1  UNL1       -0.3537
     29 C         148.2550  145.2495  172.6007 C.3     1  UNL1        0.1439
     30 C         147.1414  144.6095  171.8258 C.3     1  UNL1        0.0517
     31 C         140.8443  138.6410  164.7208 C.3     1  UNL1        0.2370
     32 F         140.8702  137.1415  164.7436 F       1  UNL1       -0.2303
@<TRIPOS>BOND
     1    16    17    1
     2    17    18   am
     3    18    19    2
     4    18     1    1
     5     1     2   ar
     6     2     3   ar
     7     3    21    1
     8    21    22    2
     9    21    23   am
    10    25    23    1
    11    25    26    1
    12    26    27    1
    13    27    28    1
    14    28    29    1
    15    30    29    1
    16     3     4   ar
    17     4     5   ar
    18     5     6   ar
    19     6     7    1
    20     7     8    1
    21     8    31    1
    22    31    32    1
    23     8     9    1
    24     9    10    1
    25    10    11   ar
    26    11    12   ar
    27    12    13   ar
    28    13    14   ar
    29    14    15   ar
    30     6     1   ar
    31    15    10   ar
    32    30    25    1
    33     9     5    1
    34    30    26    1
    35    17    20    1
    36    23    24    1
@<TRIPOS>MOLECULE
*****
 32 36 0 0 0
SMALL
GASTEIGER

@<TRIPOS>ATOM
      1 C         138.8361  138.7529  165.5063 C.ar    1  UNL1        0.0871
      2 C         138.9334  138.3394  164.0678 C.ar    1  UNL1        0.0120
      3 C         139.7787  139.1318  163.1151 C.ar    1  UNL1        0.0534
      4 C         140.5267  140.3378  163.6010 C.ar    1  UNL1        0.0037
      5 C         140.4294  140.7512  165.0396 C.ar    1  UNL1        0.0194
      6 C         139.5842  139.9588  165.9922 C.ar    1  UNL1        0.1392
      7 O         139.6803  140.6032  167.3434 O.3     1  UNL1       -0.4757
      8 C         140.5850  141.7939  167.2258 C.3     1  UNL1        0.2090
      9 C         141.0480  141.8854  165.8020 C.3     1  UNL1        0.0904
     10 C         141.9680  142.9279  165.2393 C.ar    1  UNL1       -0.0147
     11 C         141.4100  144.0679  164.4397 C.ar    1  UNL1       -0.0038
     12 C         142.3300  145.1105  163.8770 C.ar    1  UNL1       -0.0003
     13 C         143.8080  145.0131  164.1138 C.ar    1  UNL1       -0.0000
     14 C         144.3659  143.8732  164.9134 C.ar    1  UNL1       -0.0003
     15 C         143.4459  142.8307  165.4761 C.ar    1  UNL1       -0.0038
     16 C         136.5783  137.8245  168.6352 C.3     1  UNL1        0.1109
     17 N         137.4236  138.6169  167.6826 N.am    1  UNL1       -0.2991
     18 C         137.9909  137.9605  166.4590 C.2     1  UNL1        0.2488
     19 O         137.7129  136.5116  166.1881 O.2     1  UNL1       -0.2700
     20 H         137.6060  139.5679  167.8604 H       1  UNL1        0.1498
     21 C         139.8759  138.7183  161.6765 C.2     1  UNL1        0.2458
     22 O         138.6916  138.1039  160.9910 O.2     1  UNL1       -0.2701
     23 N         141.1575  138.9191  160.9234 N.am    1  UNL1       -0.3023
     24 H         141.9348  139.3223  161.3733 H       1  UNL1        0.1497
     25 C         141.2548  138.5056  159.4848 C.3     1  UNL1        0.0769
     26 C         142.0867  138.1274  158.2953 C.3     1  UNL1        0.0517
     27 C         142.6412  137.7218  156.9619 C.3     1  UNL1        0.1439
     28 O         141.4887  137.5111  156.0252 O.3     1  UNL1       -0.3537
     29 C         140.2219  137.7865  156.7796 C.3     1  UNL1        0.1439
     30 C         140.5915  138.1675  158.1827 C.3     1  UNL1        0.0517
     31 C         140.9607  142.7289  168.3369 C.3     1  UNL1        0.2370
     32 F         140.0339  143.8422  168.7260 F       1  UNL1       -0.2303
@<TRIPOS>BOND
     1    16    17    1
     2    17    18   am
     3    18    19    2
     4    18     1    1
     5     1     2   ar
     6     2     3   ar
     7     3    21    1
     8    21    22    2
     9    21    23   am
    10    25    23    1
    11    25    26    1
    12    26    27    1
    13    27    28    1
    14    28    29    1
    15    30    29    1
    16     3     4   ar
    17     4     5   ar
    18     5     6   ar
    19     6     7    1
    20     7     8    1
    21     8    31    1
    22    31    32    1
    23     8     9    1
    24     9    10    1
    25    10    11   ar
    26    11    12   ar
    27    12    13   ar
    28    13    14   ar
    29    14    15   ar
    30     6     1   ar
    31    15    10   ar
    32    30    25    1
    33     9     5    1
    34    30    26    1
    35    17    20    1
    36    23    24    1
@<TRIPOS>MOLECULE
*****
 32 36 0 0 0
SMALL
GASTEIGER

@<TRIPOS>ATOM
      1 C         144.3203  142.8651  161.1856 C.ar    1  UNL1        0.0871
      2 C         145.2085  142.3718  160.0821 C.ar    1  UNL1        0.0120
      3 C         144.7869  142.5324  158.6515 C.ar    1  UNL1        0.0534
      4 C         143.4772  143.1863  158.3245 C.ar    1  UNL1        0.0037
      5 C         142.5891  143.6796  159.4280 C.ar    1  UNL1        0.0194
      6 C         143.0106  143.5190  160.8586 C.ar    1  UNL1        0.1392
      7 O         141.9340  144.0993  161.7270 O.3     1  UNL1       -0.4757
      8 C         140.8471  144.6187  160.8332 C.3     1  UNL1        0.2090
      9 C         141.2519  144.3593  159.4124 C.3     1  UNL1        0.0904
     10 C         140.4589  144.7167  158.1904 C.ar    1  UNL1       -0.0147
     11 C         139.6609  143.6639  157.4796 C.ar    1  UNL1       -0.0038
     12 C         138.8679  144.0214  156.2576 C.ar    1  UNL1       -0.0003
     13 C         138.8727  145.4315  155.7463 C.ar    1  UNL1       -0.0000
     14 C         139.6707  146.4842  156.4570 C.ar    1  UNL1       -0.0003
     15 C         140.4637  146.1268  157.6790 C.ar    1  UNL1       -0.0038
     16 C         144.4716  143.3243  165.1246 C.3     1  UNL1        0.1109
     17 N         144.0500  143.4849  163.6941 N.am    1  UNL1       -0.2991
     18 C         144.7419  142.7044  162.6161 C.2     1  UNL1        0.2488
     19 O         145.8554  141.7633  162.9687 O.2     1  UNL1       -0.2700
     20 H         143.3192  144.1026  163.4627 H       1  UNL1        0.1498
     21 C         145.6751  142.0390  157.5480 C.2     1  UNL1        0.2458
     22 O         145.4222  140.6986  156.9242 O.2     1  UNL1       -0.2701
     23 N         146.8162  142.8862  157.0682 N.am    1  UNL1       -0.3023
     24 H         146.9822  143.7660  157.4777 H       1  UNL1        0.1497
     25 C         147.7044  142.3929  155.9647 C.3     1  UNL1        0.0769
     26 C         147.9217  142.0793  154.5141 C.3     1  UNL1        0.0517
     27 C         148.4254  141.6804  153.1587 C.3     1  UNL1        0.1439
     28 O         149.8405  141.2066  153.3109 O.3     1  UNL1       -0.3537
     29 C         150.2114  141.3128  154.7604 C.3     1  UNL1        0.1439
     30 C         149.0255  141.8522  155.5040 C.3     1  UNL1        0.0517
     31 C         139.5781  145.2810  161.2815 C.3     1  UNL1        0.2370
     32 F         139.5820  146.7336  161.6557 F       1  UNL1       -0.2303
@<TRIPOS>BOND
     1    16    17    1
     2    17    18   am
     3    18    19    2
     4    18     1    1
     5     1     2   ar
     6     2     3   ar
     7     3    21    1
     8    21    22    2
     9    21    23   am
    10    25    23    1
    11    25    26    1
    12    26    27    1
    13    27    28    1
    14    28    29    1
    15    30    29    1
    16     3     4   ar
    17     4     5   ar
    18     5     6   ar
    19     6     7    1
    20     7     8    1
    21     8    31    1
    22    31    32    1
    23     8     9    1
    24     9    10    1
    25    10    11   ar
    26    11    12   ar
    27    12    13   ar
    28    13    14   ar
    29    14    15   ar
    30     6     1   ar
    31    15    10   ar
    32    30    25    1
    33     9     5    1
    34    30    26    1
    35    17    20    1
    36    23    24    1
@<TRIPOS>MOLECULE
*****
 32 36 0 0 0
SMALL
GASTEIGER

@<TRIPOS>ATOM
      1 C         140.7365  143.2985  160.2101 C.ar    1  UNL1        0.0871
      2 C         141.0442  141.9870  159.5503 C.ar    1  UNL1        0.0120
      3 C         140.9053  140.7084  160.3221 C.ar    1  UNL1        0.0534
      4 C         140.4589  140.7412  161.7537 C.ar    1  UNL1        0.0037
      5 C         140.1512  142.0527  162.4135 C.ar    1  UNL1        0.0194
      6 C         140.2901  143.3313  161.6417 C.ar    1  UNL1        0.1392
      7 O         139.9189  144.4646  162.5516 O.3     1  UNL1       -0.4757
      8 C         139.5506  143.8864  163.8858 C.3     1  UNL1        0.2090
      9 C         139.6943  142.3957  163.8004 C.3     1  UNL1        0.0904
     10 C         139.4277  141.4194  164.9076 C.ar    1  UNL1       -0.0147
     11 C         138.3097  140.4275  164.7799 C.ar    1  UNL1       -0.0038
     12 C         138.0431  139.4512  165.8871 C.ar    1  UNL1       -0.0003
     13 C         138.8944  139.4669  167.1219 C.ar    1  UNL1       -0.0000
     14 C         140.0124  140.4588  167.2496 C.ar    1  UNL1       -0.0003
     15 C         140.2789  141.4350  166.1425 C.ar    1  UNL1       -0.0038
     16 C         142.1670  146.0422  157.7250 C.3     1  UNL1        0.1109
     17 N         142.0282  144.7636  158.4968 N.am    1  UNL1       -0.2991
     18 C         140.8754  144.5772  159.4382 C.2     1  UNL1        0.2488
     19 O         139.8614  145.6694  159.6078 O.2     1  UNL1       -0.2700
     20 H         142.6937  144.0467  158.3855 H       1  UNL1        0.1498
     21 C         141.2130  139.3968  159.6623 C.2     1  UNL1        0.2458
     22 O         141.3631  138.1566  160.4925 O.2     1  UNL1       -0.2701
     23 N         141.3705  139.3256  158.1723 N.am    1  UNL1       -0.3023
     24 H         141.2720  140.1397  157.6274 H       1  UNL1        0.1497
     25 C         141.6782  138.0142  157.5124 C.3     1  UNL1        0.0769
     26 C         142.5622  136.8119  157.3613 C.3     1  UNL1        0.0517
     27 C         143.2365  135.5235  156.9934 C.3     1  UNL1        0.1439
     28 O         142.4180  134.8603  155.9255 O.3     1  UNL1       -0.3537
     29 C         141.2379  135.7389  155.6334 C.3     1  UNL1        0.1439
     30 C         141.3270  136.9450  156.5208 C.3     1  UNL1        0.0517
     31 C         139.1153  144.6625  165.0932 C.3     1  UNL1        0.2370
     32 F         137.6567  144.7825  165.4219 F       1  UNL1       -0.2303
@<TRIPOS>BOND
     1    16    17    1
     2    17    18   am
     3    18    19    2
     4    18     1    1
     5     1     2   ar
     6     2     3   ar
     7     3    21    1
     8    21    22    2
     9    21    23   am
    10    25    23    1
    11    25    26    1
    12    26    27    1
    13    27    28    1
    14    28    29    1
    15    30    29    1
    16     3     4   ar
    17     4     5   ar
    18     5     6   ar
    19     6     7    1
    20     7     8    1
    21     8    31    1
    22    31    32    1
    23     8     9    1
    24     9    10    1
    25    10    11   ar
    26    11    12   ar
    27    12    13   ar
    28    13    14   ar
    29    14    15   ar
    30     6     1   ar
    31    15    10   ar
    32    30    25    1
    33     9     5    1
    34    30    26    1
    35    17    20    1
    36    23    24    1
@<TRIPOS>MOLECULE
*****
 32 36 0 0 0
SMALL
GASTEIGER

@<TRIPOS>ATOM
      1 C         142.2562  140.8556  169.6064 C.ar    1  UNL1        0.0871
      2 C         141.3265  141.7235  170.4015 C.ar    1  UNL1        0.0120
      3 C         140.5950  142.8492  169.7324 C.ar    1  UNL1        0.0534
      4 C         140.7932  143.1070  168.2681 C.ar    1  UNL1        0.0037
      5 C         141.7229  142.2391  167.4729 C.ar    1  UNL1        0.0194
      6 C         142.4544  141.1134  168.1420 C.ar    1  UNL1        0.1392
      7 O         143.2997  140.4305  167.1081 O.3     1  UNL1       -0.4757
      8 C         143.0907  141.1341  165.8000 C.3     1  UNL1        0.2090
      9 C         142.1161  142.2519  166.0254 C.3     1  UNL1        0.0904
     10 C         141.6216  143.2136  164.9860 C.ar    1  UNL1       -0.0147
     11 C         142.5786  144.1608  164.3247 C.ar    1  UNL1       -0.0038
     12 C         142.0841  145.1225  163.2852 C.ar    1  UNL1       -0.0003
     13 C         140.6327  145.1371  162.9069 C.ar    1  UNL1       -0.0000
     14 C         139.6758  144.1900  163.5681 C.ar    1  UNL1       -0.0003
     15 C         140.1703  143.2282  164.6076 C.ar    1  UNL1       -0.0038
     16 C         143.5698  137.2027  170.4315 C.3     1  UNL1        0.1109
     17 N         142.8383  138.3284  169.7624 N.am    1  UNL1       -0.2991
     18 C         142.9878  139.7300  170.2755 C.2     1  UNL1        0.2488
     19 O         143.8687  140.0058  171.4577 O.2     1  UNL1       -0.2700
     20 H         142.2601  138.1473  168.9864 H       1  UNL1        0.1498
     21 C         139.6653  143.7171  170.5277 C.2     1  UNL1        0.2458
     22 O         138.6718  143.0929  171.4622 O.2     1  UNL1       -0.2701
     23 N         139.7291  145.2093  170.3884 N.am    1  UNL1       -0.3023
     24 H         140.3811  145.6190  169.7750 H       1  UNL1        0.1497
     25 C         138.7994  146.0772  171.1836 C.3     1  UNL1        0.0769
     26 C         137.4981  146.2675  171.9049 C.3     1  UNL1        0.0517
     27 C         136.3072  146.7460  172.6813 C.3     1  UNL1        0.1439
     28 O         136.5637  148.1645  173.0960 O.3     1  UNL1       -0.3537
     29 C         137.9130  148.5628  172.5758 C.3     1  UNL1        0.1439
     30 C         138.4905  147.3903  171.8397 C.3     1  UNL1        0.0517
     31 C         143.7419  140.7818  164.4954 C.3     1  UNL1        0.2370
     32 F         142.9352  140.1469  163.4018 F       1  UNL1       -0.2303
@<TRIPOS>BOND
     1    16    17    1
     2    17    18   am
     3    18    19    2
     4    18     1    1
     5     1     2   ar
     6     2     3   ar
     7     3    21    1
     8    21    22    2
     9    21    23   am
    10    25    23    1
    11    25    26    1
    12    26    27    1
    13    27    28    1
    14    28    29    1
    15    30    29    1
    16     3     4   ar
    17     4     5   ar
    18     5     6   ar
    19     6     7    1
    20     7     8    1
    21     8    31    1
    22    31    32    1
    23     8     9    1
    24     9    10    1
    25    10    11   ar
    26    11    12   ar
    27    12    13   ar
    28    13    14   ar
    29    14    15   ar
    30     6     1   ar
    31    15    10   ar
    32    30    25    1
    33     9     5    1
    34    30    26    1
    35    17    20    1
    36    23    24    1
@<TRIPOS>MOLECULE
*****
 32 36 0 0 0
SMALL
GASTEIGER

@<TRIPOS>ATOM
      1 C         142.6567  142.3740  158.5208 C.ar    1  UNL1        0.0871
      2 C         142.3197  141.0466  157.9090 C.ar    1  UNL1        0.0120
      3 C         142.3314  139.8069  158.7534 C.ar    1  UNL1        0.0534
      4 C         142.6800  139.8946  160.2096 C.ar    1  UNL1        0.0037
      5 C         143.0169  141.2220  160.8215 C.ar    1  UNL1        0.0194
      6 C         143.0053  142.4617  159.9771 C.ar    1  UNL1        0.1392
      7 O         143.3781  143.6218  160.8518 O.3     1  UNL1       -0.4757
      8 C         143.6202  143.0991  162.2368 C.3     1  UNL1        0.2090
      9 C         143.3970  141.6159  162.2181 C.3     1  UNL1        0.0904
     10 C         143.5304  140.6894  163.3901 C.ar    1  UNL1       -0.0147
     11 C         142.3425  140.4063  164.2614 C.ar    1  UNL1       -0.0038
     12 C         142.4760  139.4797  165.4334 C.ar    1  UNL1       -0.0003
     13 C         143.7971  138.8362  165.7342 C.ar    1  UNL1       -0.0000
     14 C         144.9848  139.1193  164.8629 C.ar    1  UNL1       -0.0003
     15 C         144.8514  140.0459  163.6909 C.ar    1  UNL1       -0.0038
     16 C         142.1977  146.1605  157.4249 C.3     1  UNL1        0.1109
     17 N         142.2094  144.9208  158.2693 N.am    1  UNL1       -0.2991
     18 C         142.6450  143.6137  157.6765 C.2     1  UNL1        0.2488
     19 O         143.0689  143.5462  156.2392 O.2     1  UNL1       -0.2700
     20 H         141.9311  144.9651  159.2126 H       1  UNL1        0.1498
     21 C         141.9945  138.4794  158.1414 C.2     1  UNL1        0.2458
     22 O         140.5628  138.0455  158.0326 O.2     1  UNL1       -0.2701
     23 N         143.0893  137.5859  157.6383 N.am    1  UNL1       -0.3023
     24 H         144.0290  137.8708  157.7098 H       1  UNL1        0.1497
     25 C         142.7524  136.2585  157.0264 C.3     1  UNL1        0.0769
     26 C         141.9675  135.4439  156.0414 C.3     1  UNL1        0.0517
     27 C         141.3423  134.3885  155.1782 C.3     1  UNL1        0.1439
     28 O         141.9423  133.0663  155.5548 O.3     1  UNL1       -0.3537
     29 C         142.9383  133.3045  156.6507 C.3     1  UNL1        0.1439
     30 C         142.9539  134.7741  156.9515 C.3     1  UNL1        0.0517
     31 C         144.0160  143.9161  163.4309 C.3     1  UNL1        0.2370
     32 F         143.8997  145.4110  163.3887 F       1  UNL1       -0.2303
@<TRIPOS>BOND
     1    16    17    1
     2    17    18   am
     3    18    19    2
     4    18     1    1
     5     1     2   ar
     6     2     3   ar
     7     3    21    1
     8    21    22    2
     9    21    23   am
    10    25    23    1
    11    25    26    1
    12    26    27    1
    13    27    28    1
    14    28    29    1
    15    30    29    1
    16     3     4   ar
    17     4     5   ar
    18     5     6   ar
    19     6     7    1
    20     7     8    1
    21     8    31    1
    22    31    32    1
    23     8     9    1
    24     9    10    1
    25    10    11   ar
    26    11    12   ar
    27    12    13   ar
    28    13    14   ar
    29    14    15   ar
    30     6     1   ar
    31    15    10   ar
    32    30    25    1
    33     9     5    1
    34    30    26    1
    35    17    20    1
    36    23    24    1
@<TRIPOS>MOLECULE
*****
 32 36 0 0 0
SMALL
GASTEIGER

@<TRIPOS>ATOM
      1 C         143.1547  141.6964  158.6039 C.ar    1  UNL1        0.0871
      2 C         141.9010  141.1514  157.9866 C.ar    1  UNL1        0.0120
      3 C         140.5881  141.3039  158.6959 C.ar    1  UNL1        0.0534
      4 C         140.5290  142.0014  160.0225 C.ar    1  UNL1        0.0037
      5 C         141.7827  142.5464  160.6398 C.ar    1  UNL1        0.0194
      6 C         143.0956  142.3939  159.9305 C.ar    1  UNL1        0.1392
      7 O         144.1572  143.0290  160.7787 O.3     1  UNL1       -0.4757
      8 C         143.5006  143.5741  162.0123 C.3     1  UNL1        0.2090
      9 C         142.0330  143.2758  161.9264 C.3     1  UNL1        0.0904
     10 C         140.9976  143.6425  162.9478 C.ar    1  UNL1       -0.0147
     11 C         141.0252  143.0060  164.3059 C.ar    1  UNL1       -0.0038
     12 C         139.9897  143.3727  165.3273 C.ar    1  UNL1       -0.0003
     13 C         138.9266  144.3759  164.9908 C.ar    1  UNL1       -0.0000
     14 C         138.8989  145.0124  163.6328 C.ar    1  UNL1       -0.0003
     15 C         139.9344  144.6457  162.6114 C.ar    1  UNL1       -0.0038
     16 C         146.6996  142.5687  157.0473 C.3     1  UNL1        0.1109
     17 N         145.3868  142.7212  157.7567 N.am    1  UNL1       -0.2991
     18 C         144.4676  141.5439  157.8945 C.2     1  UNL1        0.2488
     19 O         144.8613  140.2141  157.3230 O.2     1  UNL1       -0.2700
     20 H         145.1284  143.5940  158.1317 H       1  UNL1        0.1498
     21 C         139.3344  140.7589  158.0785 C.2     1  UNL1        0.2458
     22 O         138.7936  139.4329  158.5250 O.2     1  UNL1       -0.2701
     23 N         138.6213  141.5399  157.0148 N.am    1  UNL1       -0.3023
     24 H         138.9762  142.4102  156.7218 H       1  UNL1        0.1497
     25 C         137.3676  140.9949  156.3974 C.3     1  UNL1        0.0769
     26 C         136.6888  140.1990  155.3224 C.3     1  UNL1        0.0517
     27 C         135.7479  139.4805  154.4013 C.3     1  UNL1        0.1439
     28 O         134.3525  139.6843  154.9127 O.3     1  UNL1       -0.3537
     29 C         134.4311  140.5288  156.1499 C.3     1  UNL1        0.1439
     30 C         135.8750  140.8469  156.4031 C.3     1  UNL1        0.0517
     31 C         144.1903  144.2915  163.1346 C.3     1  UNL1        0.2370
     32 F         143.5305  145.4681  163.7904 F       1  UNL1       -0.2303
@<TRIPOS>BOND
     1    16    17    1
     2    17    18   am
     3    18    19    2
     4    18     1    1
     5     1     2   ar
     6     2     3   ar
     7     3    21    1
     8    21    22    2
     9    21    23   am
    10    25    23    1
    11    25    26    1
    12    26    27    1
    13    27    28    1
    14    28    29    1
    15    30    29    1
    16     3     4   ar
    17     4     5   ar
    18     5     6   ar
    19     6     7    1
    20     7     8    1
    21     8    31    1
    22    31    32    1
    23     8     9    1
    24     9    10    1
    25    10    11   ar
    26    11    12   ar
    27    12    13   ar
    28    13    14   ar
    29    14    15   ar
    30     6     1   ar
    31    15    10   ar
    32    30    25    1
    33     9     5    1
    34    30    26    1
    35    17    20    1
    36    23    24    1
@<TRIPOS>MOLECULE
*****
 32 36 0 0 0
SMALL
GASTEIGER

@<TRIPOS>ATOM
      1 C         141.7315  143.9749  157.8666 C.ar    1  UNL1        0.0871
      2 C         142.8312  143.5151  156.9560 C.ar    1  UNL1        0.0120
      3 C         143.9692  142.7057  157.5036 C.ar    1  UNL1        0.0534
      4 C         144.0075  142.3560  158.9617 C.ar    1  UNL1        0.0037
      5 C         142.9078  142.8158  159.8723 C.ar    1  UNL1        0.0194
      6 C         141.7698  143.6253  159.3248 C.ar    1  UNL1        0.1392
      7 O         140.8354  143.9359  160.4563 O.3     1  UNL1       -0.4757
      8 C         141.3958  143.3185  161.7031 C.3     1  UNL1        0.2090
      9 C         142.6766  142.6262  161.3422 C.3     1  UNL1        0.0904
     10 C         143.5695  141.8760  162.2856 C.ar    1  UNL1       -0.0147
     11 C         144.7891  142.5407  162.8524 C.ar    1  UNL1       -0.0038
     12 C         145.6820  141.7905  163.7957 C.ar    1  UNL1       -0.0003
     13 C         145.3555  140.3757  164.1723 C.ar    1  UNL1       -0.0000
     14 C         144.1360  139.7112  163.6056 C.ar    1  UNL1       -0.0003
     15 C         143.2431  140.4613  162.6622 C.ar    1  UNL1       -0.0038
     16 C         139.5776  147.0852  156.6680 C.3     1  UNL1        0.1109
     17 N         140.7156  146.2758  157.2155 N.am    1  UNL1       -0.2991
     18 C         140.5936  144.7844  157.3191 C.2     1  UNL1        0.2488
     19 O         139.3335  144.1024  156.8750 O.2     1  UNL1       -0.2700
     20 H         141.5426  146.7234  157.5070 H       1  UNL1        0.1498
     21 C         145.0689  142.2459  156.5929 C.2     1  UNL1        0.2458
     22 O         144.8191  141.1345  155.6170 O.2     1  UNL1       -0.2701
     23 N         146.4184  142.8974  156.6582 N.am    1  UNL1       -0.3023
     24 H         146.5824  143.6268  157.2988 H       1  UNL1        0.1497
     25 C         147.5181  142.4377  155.7476 C.3     1  UNL1        0.0769
     26 C         148.9019  141.8919  155.5545 C.3     1  UNL1        0.0517
     27 C         150.2143  141.3633  155.0565 C.3     1  UNL1        0.1439
     28 O         150.1628  141.3320  153.5577 O.3     1  UNL1       -0.3537
     29 C         148.8185  141.8412  153.1294 C.3     1  UNL1        0.1439
     30 C         148.0392  142.1872  154.3635 C.3     1  UNL1        0.0517
     31 C         140.7829  143.3821  163.0708 C.3     1  UNL1        0.2370
     32 F         141.5719  143.9334  164.2212 F       1  UNL1       -0.2303
@<TRIPOS>BOND
     1    16    17    1
     2    17    18   am
     3    18    19    2
     4    18     1    1
     5     1     2   ar
     6     2     3   ar
     7     3    21    1
     8    21    22    2
     9    21    23   am
    10    25    23    1
    11    25    26    1
    12    26    27    1
    13    27    28    1
    14    28    29    1
    15    30    29    1
    16     3     4   ar
    17     4     5   ar
    18     5     6   ar
    19     6     7    1
    20     7     8    1
    21     8    31    1
    22    31    32    1
    23     8     9    1
    24     9    10    1
    25    10    11   ar
    26    11    12   ar
    27    12    13   ar
    28    13    14   ar
    29    14    15   ar
    30     6     1   ar
    31    15    10   ar
    32    30    25    1
    33     9     5    1
    34    30    26    1
    35    17    20    1
    36    23    24    1
@<TRIPOS>MOLECULE
*****
 32 36 0 0 0
SMALL
GASTEIGER

@<TRIPOS>ATOM
      1 C         142.1390  140.4969  159.7793 C.ar    1  UNL1        0.0871
      2 C         140.8523  140.5789  159.0128 C.ar    1  UNL1        0.0120
      3 C         139.5515  140.2782  159.6964 C.ar    1  UNL1        0.0534
      4 C         139.5373  139.8955  161.1467 C.ar    1  UNL1        0.0037
      5 C         140.8240  139.8135  161.9133 C.ar    1  UNL1        0.0194
      6 C         142.1248  140.1142  161.2296 C.ar    1  UNL1        0.1392
      7 O         143.2255  139.9519  162.2356 O.3     1  UNL1       -0.4757
      8 C         142.6050  139.5509  163.5411 C.3     1  UNL1        0.2090
      9 C         141.1208  139.4653  163.3418 C.3     1  UNL1        0.0904
     10 C         140.1106  139.0964  164.3875 C.ar    1  UNL1       -0.0147
     11 C         139.6686  140.1153  165.3959 C.ar    1  UNL1       -0.0038
     12 C         138.6584  139.7464  166.4416 C.ar    1  UNL1       -0.0003
     13 C         138.0902  138.3587  166.4790 C.ar    1  UNL1       -0.0000
     14 C         138.5322  137.3399  165.4707 C.ar    1  UNL1       -0.0003
     15 C         139.5424  137.7088  164.4250 C.ar    1  UNL1       -0.0038
     16 C         145.1954  142.5192  158.2567 C.3     1  UNL1        0.1109
     17 N         143.8945  142.2185  158.9403 N.am    1  UNL1       -0.2991
     18 C         143.4398  140.7976  159.0957 C.2     1  UNL1        0.2488
     19 O         144.2860  139.6774  158.5674 O.2     1  UNL1       -0.2700
     20 H         143.3392  142.9538  159.2870 H       1  UNL1        0.1498
     21 C         138.2647  140.3602  158.9297 C.2     1  UNL1        0.2458
     22 O         136.9868  139.8869  159.5564 O.2     1  UNL1       -0.2701
     23 N         138.2561  140.9156  157.5364 N.am    1  UNL1       -0.3023
     24 H         139.0948  141.2263  157.1251 H       1  UNL1        0.1497
     25 C         136.9694  140.9977  156.7697 C.3     1  UNL1        0.0769
     26 C         136.1730  141.5475  155.6237 C.3     1  UNL1        0.0517
     27 C         135.1457  141.9213  154.5966 C.3     1  UNL1        0.1439
     28 O         133.8752  141.1950  154.9259 O.3     1  UNL1       -0.3537
     29 C         134.1173  140.3722  156.1565 C.3     1  UNL1        0.1439
     30 C         135.5374  140.5901  156.5878 C.3     1  UNL1        0.0517
     31 C         143.3397  139.2826  164.8210 C.3     1  UNL1        0.2370
     32 F         143.0012  138.0728  165.6406 F       1  UNL1       -0.2303
@<TRIPOS>BOND
     1    16    17    1
     2    17    18   am
     3    18    19    2
     4    18     1    1
     5     1     2   ar
     6     2     3   ar
     7     3    21    1
     8    21    22    2
     9    21    23   am
    10    25    23    1
    11    25    26    1
    12    26    27    1
    13    27    28    1
    14    28    29    1
    15    30    29    1
    16     3     4   ar
    17     4     5   ar
    18     5     6   ar
    19     6     7    1
    20     7     8    1
    21     8    31    1
    22    31    32    1
    23     8     9    1
    24     9    10    1
    25    10    11   ar
    26    11    12   ar
    27    12    13   ar
    28    13    14   ar
    29    14    15   ar
    30     6     1   ar
    31    15    10   ar
    32    30    25    1
    33     9     5    1
    34    30    26    1
    35    17    20    1
    36    23    24    1
