@<TRIPOS>MOLECULE
*****
 39 43 0 0 0
SMALL
GASTEIGER

@<TRIPOS>ATOM
      1 C         138.8154  138.2318  164.4633 C.3     1  UNL1        0.0230
      2 C         138.2801  138.5645  165.8244 C.3     1  UNL1        0.0234
      3 C         138.0359  139.0010  167.2386 C.3     1  UNL1        0.0968
      4 N         139.3167  139.5666  167.7769 N.am    1  UNL1       -0.2460
      5 C         139.5251  140.1216  169.1547 C.2     1  UNL1        0.4052
      6 O         138.3895  140.1429  170.1345 O.2     1  UNL1       -0.2262
      7 C         140.3524  139.4797  166.6954 C.3     1  UNL1        0.0968
      8 C         139.7117  138.8604  165.4887 C.3     1  UNL1        0.0234
      9 C         138.6070  137.6768  163.0855 C.3     1  UNL1        0.0898
     10 O         141.4332  137.2398  162.1791 O.2     1  UNL1       -0.2702
     11 C         140.5476  138.1974  161.4383 C.2     1  UNL1        0.2456
     12 N         139.1345  138.4159  161.8915 N.am    1  UNL1       -0.3009
     13 H         138.5533  139.0443  161.4052 H       1  UNL1        0.1497
     14 C         141.0751  138.9364  160.2443 C.2     1  UNL1        0.0525
     15 C         140.1360  139.7055  159.3632 C.2     1  UNL1       -0.0153
     16 C         140.6635  140.4445  158.1692 C.3     1  UNL1        0.0726
     17 C         142.1303  140.4143  157.8564 C.2     1  UNL1        0.0933
     18 N         142.9351  141.0413  156.7567 N.am    1  UNL1       -0.1431
     19 C         144.3716  140.6597  156.9582 C.2     1  UNL1        0.4298
     20 O         145.5231  141.0689  156.0883 O.2     1  UNL1       -0.2238
     21 O         144.4546  139.7969  158.1825 O.3     1  UNL1       -0.4079
     22 C         143.0694  139.6453  158.7375 C.2     1  UNL1        0.1618
     23 C         142.5419  138.9063  159.9315 C.2     1  UNL1        0.0429
     24 O         140.8692  140.6553  169.5529 O.3     1  UNL1       -0.4295
     25 C         141.2586  142.0566  169.1855 C.3     1  UNL1        0.2367
     26 C         141.4471  142.4293  167.7448 C.ar    1  UNL1        0.0212
     27 C         142.7933  142.2777  167.1008 C.ar    1  UNL1        0.0031
     28 C         142.9818  142.6504  165.6601 C.ar    1  UNL1        0.0712
     29 C         141.8240  143.1747  164.8634 C.ar    1  UNL1        0.0077
     30 C         140.4778  143.3263  165.5074 C.ar    1  UNL1        0.0712
     31 C         140.2894  142.9536  166.9481 C.ar    1  UNL1        0.0031
     32 C         144.3280  142.4988  165.0161 C.3     1  UNL1        0.4186
     33 F         145.6741  142.3472  164.3721 F       1  UNL1       -0.1659
     34 F         144.8138  143.7164  165.7452 F       1  UNL1       -0.1659
     35 F         143.8421  141.2813  164.2871 F       1  UNL1       -0.1659
     36 C         139.3200  143.8506  164.7107 C.3     1  UNL1        0.4186
     37 F         138.1622  144.3749  163.9141 F       1  UNL1       -0.1659
     38 F         138.6065  142.5431  164.8872 F       1  UNL1       -0.1659
     39 F         140.0336  145.1582  164.5343 F       1  UNL1       -0.1659
@<TRIPOS>BOND
     1    10    11    2
     2    11    12   am
     3    12     9    1
     4     1     9    1
     5     1     2    1
     6     2     3    1
     7     3     4    1
     8     4     5   am
     9     5     6    2
    10     5    24    1
    11    24    25    1
    12    25    26    1
    13    26    27   ar
    14    27    28   ar
    15    28    32    1
    16    32    33    1
    17    32    34    1
    18    32    35    1
    19    28    29   ar
    20    29    30   ar
    21    30    36    1
    22    36    37    1
    23    36    38    1
    24    36    39    1
    25    30    31   ar
    26     4     7    1
    27     8     7    1
    28    11    14    1
    29    14    15    2
    30    15    16    1
    31    16    17    1
    32    17    18    2
    33    18    19    1
    34    19    20    2
    35    19    21    1
    36    21    22    1
    37    22    23    2
    38     8     1    1
    39    23    14    1
    40     8     2    1
    41    22    17    1
    42    31    26   ar
    43    12    13    1
@<TRIPOS>MOLECULE
*****
 39 43 0 0 0
SMALL
GASTEIGER

@<TRIPOS>ATOM
      1 C         139.5235  138.4175  163.3079 C.3     1  UNL1        0.0230
      2 C         138.6478  138.6438  162.1113 C.3     1  UNL1        0.0234
      3 C         137.9878  139.0847  160.8385 C.3     1  UNL1        0.0968
      4 N         138.8360  140.1587  160.2244 N.am    1  UNL1       -0.2460
      5 C         138.5500  140.8828  158.9422 C.2     1  UNL1        0.4052
      6 O         137.3192  140.5507  158.1518 O.2     1  UNL1       -0.2262
      7 C         140.0203  140.3815  161.1176 C.3     1  UNL1        0.0968
      8 C         139.9040  139.4452  162.2837 C.3     1  UNL1        0.0234
      9 C         139.8095  137.6934  164.5901 C.3     1  UNL1        0.0898
     10 O         137.9387  139.5545  166.0172 O.2     1  UNL1       -0.2702
     11 C         139.3467  139.3861  166.5060 C.2     1  UNL1        0.2456
     12 N         140.2821  138.4556  165.7925 N.am    1  UNL1       -0.3009
     13 H         141.2063  138.3450  166.1133 H       1  UNL1        0.1497
     14 C         139.8194  140.1482  167.7085 C.2     1  UNL1        0.0525
     15 C         139.0551  140.0663  168.9965 C.2     1  UNL1       -0.0153
     16 C         139.5278  140.8284  170.1988 C.3     1  UNL1        0.0726
     17 C         140.7648  141.6725  170.1132 C.2     1  UNL1        0.0933
     18 N         141.4674  142.5291  171.1244 N.am    1  UNL1       -0.1431
     19 C         142.6659  143.1405  170.4614 C.2     1  UNL1        0.4298
     20 O         143.6531  144.0679  171.1061 O.2     1  UNL1       -0.2238
     21 O         142.7041  142.6617  169.0403 O.3     1  UNL1       -0.4079
     22 C         141.5291  141.7544  168.8251 C.2     1  UNL1        0.1618
     23 C         141.0564  140.9923  167.6228 C.2     1  UNL1        0.0429
     24 O         139.4949  141.9389  158.4505 O.3     1  UNL1       -0.4295
     25 C         139.3888  143.3416  158.9714 C.3     1  UNL1        0.2367
     26 C         139.8811  143.6689  160.3500 C.ar    1  UNL1        0.0212
     27 C         141.3522  143.8097  160.6073 C.ar    1  UNL1        0.0031
     28 C         141.8444  144.1371  161.9859 C.ar    1  UNL1        0.0712
     29 C         140.8656  144.3236  163.1072 C.ar    1  UNL1        0.0077
     30 C         139.3946  144.1828  162.8498 C.ar    1  UNL1        0.0712
     31 C         138.9024  143.8554  161.4712 C.ar    1  UNL1        0.0031
     32 C         143.3154  144.2779  162.2432 C.3     1  UNL1        0.4186
     33 F         144.7864  144.4187  162.5006 F       1  UNL1       -0.1659
     34 F         143.6087  143.5381  160.9717 F       1  UNL1       -0.1659
     35 F         143.0222  145.0176  163.5147 F       1  UNL1       -0.1659
     36 C         138.4158  144.3693  163.9711 C.3     1  UNL1        0.4186
     37 F         137.4370  144.5558  165.0923 F       1  UNL1       -0.1659
     38 F         137.2896  144.4100  162.9811 F       1  UNL1       -0.1659
     39 F         139.5420  144.3285  164.9610 F       1  UNL1       -0.1659
@<TRIPOS>BOND
     1    10    11    2
     2    11    12   am
     3    12     9    1
     4     1     9    1
     5     1     2    1
     6     2     3    1
     7     3     4    1
     8     4     5   am
     9     5     6    2
    10     5    24    1
    11    24    25    1
    12    25    26    1
    13    26    27   ar
    14    27    28   ar
    15    28    32    1
    16    32    33    1
    17    32    34    1
    18    32    35    1
    19    28    29   ar
    20    29    30   ar
    21    30    36    1
    22    36    37    1
    23    36    38    1
    24    36    39    1
    25    30    31   ar
    26     4     7    1
    27     8     7    1
    28    11    14    1
    29    14    15    2
    30    15    16    1
    31    16    17    1
    32    17    18    2
    33    18    19    1
    34    19    20    2
    35    19    21    1
    36    21    22    1
    37    22    23    2
    38     8     1    1
    39    23    14    1
    40     8     2    1
    41    22    17    1
    42    31    26   ar
    43    12    13    1
@<TRIPOS>MOLECULE
*****
 39 43 0 0 0
SMALL
GASTEIGER

@<TRIPOS>ATOM
      1 C         138.7842  138.2015  164.4846 C.3     1  UNL1        0.0230
      2 C         138.2576  138.5402  165.8476 C.3     1  UNL1        0.0234
      3 C         138.0220  138.9846  167.2608 C.3     1  UNL1        0.0968
      4 N         139.3036  139.5610  167.7853 N.am    1  UNL1       -0.2460
      5 C         139.5196  140.1263  169.1577 C.2     1  UNL1        0.4052
      6 O         138.3915  140.1477  170.1462 O.2     1  UNL1       -0.2262
      7 C         140.3314  139.4728  166.6963 C.3     1  UNL1        0.0968
      8 C         139.6849  138.8419  165.4988 C.3     1  UNL1        0.0234
      9 C         138.5682  137.6362  163.1121 C.3     1  UNL1        0.0898
     10 O         141.4038  137.1871  162.2416 O.2     1  UNL1       -0.2702
     11 C         140.5248  138.1312  161.4760 C.2     1  UNL1        0.2456
     12 N         139.1071  138.3557  161.9112 N.am    1  UNL1       -0.3009
     13 H         138.5301  138.9753  161.4087 H       1  UNL1        0.1497
     14 C         141.0636  138.8507  160.2751 C.2     1  UNL1        0.0525
     15 C         140.1243  139.5351  159.3269 C.2     1  UNL1       -0.0153
     16 C         140.6632  140.2546  158.1261 C.3     1  UNL1        0.0726
     17 C         142.1413  140.2896  157.8735 C.2     1  UNL1        0.0933
     18 N         142.9586  140.9155  156.7824 N.am    1  UNL1       -0.1431
     19 C         144.4030  140.6179  157.0563 C.2     1  UNL1        0.4298
     20 O         145.5676  141.0536  156.2172 O.2     1  UNL1       -0.2238
     21 O         144.4784  139.8081  158.3167 O.3     1  UNL1       -0.4079
     22 C         143.0807  139.6053  158.8218 C.2     1  UNL1        0.1618
     23 C         142.5418  138.8858  160.0226 C.2     1  UNL1        0.0429
     24 O         140.8637  140.6703  169.5419 O.3     1  UNL1       -0.4295
     25 C         141.2443  142.0694  169.1575 C.3     1  UNL1        0.2367
     26 C         141.4322  142.4254  167.7125 C.ar    1  UNL1        0.0212
     27 C         140.2706  142.9264  166.9064 C.ar    1  UNL1        0.0031
     28 C         140.4584  143.2824  165.4614 C.ar    1  UNL1        0.0712
     29 C         141.8079  143.1374  164.8225 C.ar    1  UNL1        0.0077
     30 C         142.9694  142.6364  165.6286 C.ar    1  UNL1        0.0712
     31 C         142.7815  142.2804  167.0736 C.ar    1  UNL1        0.0031
     32 C         139.2969  143.7834  164.6553 C.3     1  UNL1        0.4186
     33 F         138.1354  144.2844  163.8491 F       1  UNL1       -0.1659
     34 F         138.7884  142.3791  164.5154 F       1  UNL1       -0.1659
     35 F         139.8055  145.1876  164.7952 F       1  UNL1       -0.1659
     36 C         144.3188  142.4914  164.9898 C.3     1  UNL1        0.4186
     37 F         145.6682  142.3465  164.3510 F       1  UNL1       -0.1659
     38 F         144.5087  143.9779  165.0536 F       1  UNL1       -0.1659
     39 F         144.1289  141.0048  164.9260 F       1  UNL1       -0.1659
@<TRIPOS>BOND
     1    10    11    2
     2    11    12   am
     3    12     9    1
     4     1     9    1
     5     1     2    1
     6     2     3    1
     7     3     4    1
     8     4     5   am
     9     5     6    2
    10     5    24    1
    11    24    25    1
    12    25    26    1
    13    26    27   ar
    14    27    28   ar
    15    28    32    1
    16    32    33    1
    17    32    34    1
    18    32    35    1
    19    28    29   ar
    20    29    30   ar
    21    30    36    1
    22    36    37    1
    23    36    38    1
    24    36    39    1
    25    30    31   ar
    26     4     7    1
    27     8     7    1
    28    11    14    1
    29    14    15    2
    30    15    16    1
    31    16    17    1
    32    17    18    2
    33    18    19    1
    34    19    20    2
    35    19    21    1
    36    21    22    1
    37    22    23    2
    38     8     1    1
    39    23    14    1
    40     8     2    1
    41    22    17    1
    42    31    26   ar
    43    12    13    1
@<TRIPOS>MOLECULE
*****
 39 43 0 0 0
SMALL
GASTEIGER

@<TRIPOS>ATOM
      1 C         138.8506  138.3211  164.1810 C.3     1  UNL1        0.0230
      2 C         138.3263  138.5941  165.5596 C.3     1  UNL1        0.0234
      3 C         138.0935  138.9686  166.9933 C.3     1  UNL1        0.0968
      4 N         139.3785  139.5112  167.5452 N.am    1  UNL1       -0.2460
      5 C         139.5980  140.0061  168.9440 C.2     1  UNL1        0.4052
      6 O         138.4703  139.9841  169.9330 O.2     1  UNL1       -0.2262
      7 C         140.4054  139.4721  166.4525 C.3     1  UNL1        0.0968
      8 C         139.7550  138.9053  165.2253 C.3     1  UNL1        0.0234
      9 C         138.6311  137.8262  162.7821 C.3     1  UNL1        0.0898
     10 O         137.3873  140.5548  162.6938 O.2     1  UNL1       -0.2702
     11 C         138.2715  140.0969  161.5719 C.2     1  UNL1        0.2456
     12 N         138.8934  138.7327  161.6161 N.am    1  UNL1       -0.3009
     13 H         139.4737  138.4322  160.8797 H       1  UNL1        0.1497
     14 C         138.5337  141.0034  160.4058 C.2     1  UNL1        0.0525
     15 C         138.1380  140.5795  159.0225 C.2     1  UNL1       -0.0153
     16 C         138.4003  141.4859  157.8565 C.3     1  UNL1        0.0726
     17 C         139.0583  142.8163  158.0739 C.2     1  UNL1        0.0933
     18 N         139.4413  143.9135  157.1254 N.am    1  UNL1       -0.1431
     19 C         140.0737  145.0155  157.9227 C.2     1  UNL1        0.4298
     20 O         140.6051  146.3070  157.3750 O.2     1  UNL1       -0.2238
     21 O         140.0816  144.5994  159.3638 O.3     1  UNL1       -0.4079
     22 C         139.4540  143.2402  159.4572 C.2     1  UNL1        0.1618
     23 C         139.1917  142.3337  160.6232 C.2     1  UNL1        0.0429
     24 O         140.9451  140.5230  169.3540 O.3     1  UNL1       -0.4295
     25 C         141.3295  141.9403  169.0479 C.3     1  UNL1        0.2367
     26 C         141.5152  142.3763  167.6247 C.ar    1  UNL1        0.0212
     27 C         142.8521  142.2237  166.9619 C.ar    1  UNL1        0.0031
     28 C         143.0378  142.6597  165.5387 C.ar    1  UNL1        0.0712
     29 C         141.8865  143.2483  164.7783 C.ar    1  UNL1        0.0077
     30 C         140.5496  143.4010  165.4412 C.ar    1  UNL1        0.0712
     31 C         140.3640  142.9650  166.8643 C.ar    1  UNL1        0.0031
     32 C         144.3747  142.5070  164.8759 C.3     1  UNL1        0.4186
     33 F         145.7116  142.3544  164.2130 F       1  UNL1       -0.1659
     34 F         144.4233  143.9865  164.6334 F       1  UNL1       -0.1659
     35 F         144.3260  141.0276  165.1184 F       1  UNL1       -0.1659
     36 C         139.3983  143.9896  164.6808 C.3     1  UNL1        0.4186
     37 F         138.2471  144.5782  163.9205 F       1  UNL1       -0.1659
     38 F         138.5489  142.8113  165.0549 F       1  UNL1       -0.1659
     39 F         140.2478  145.1680  164.3068 F       1  UNL1       -0.1659
@<TRIPOS>BOND
     1    10    11    2
     2    11    12   am
     3    12     9    1
     4     1     9    1
     5     1     2    1
     6     2     3    1
     7     3     4    1
     8     4     5   am
     9     5     6    2
    10     5    24    1
    11    24    25    1
    12    25    26    1
    13    26    27   ar
    14    27    28   ar
    15    28    32    1
    16    32    33    1
    17    32    34    1
    18    32    35    1
    19    28    29   ar
    20    29    30   ar
    21    30    36    1
    22    36    37    1
    23    36    38    1
    24    36    39    1
    25    30    31   ar
    26     4     7    1
    27     8     7    1
    28    11    14    1
    29    14    15    2
    30    15    16    1
    31    16    17    1
    32    17    18    2
    33    18    19    1
    34    19    20    2
    35    19    21    1
    36    21    22    1
    37    22    23    2
    38     8     1    1
    39    23    14    1
    40     8     2    1
    41    22    17    1
    42    31    26   ar
    43    12    13    1
@<TRIPOS>MOLECULE
*****
 39 43 0 0 0
SMALL
GASTEIGER

@<TRIPOS>ATOM
      1 C         138.8703  138.3015  164.0134 C.3     1  UNL1        0.0230
      2 C         138.3625  138.5686  165.3994 C.3     1  UNL1        0.0234
      3 C         138.1460  138.9403  166.8364 C.3     1  UNL1        0.0968
      4 N         139.4326  139.4969  167.3701 N.am    1  UNL1       -0.2460
      5 C         139.6664  139.9940  168.7659 C.2     1  UNL1        0.4052
      6 O         138.5532  139.9594  169.7707 O.2     1  UNL1       -0.2262
      7 C         140.4443  139.4692  166.2630 C.3     1  UNL1        0.0968
      8 C         139.7829  138.8954  165.0450 C.3     1  UNL1        0.0234
      9 C         138.6364  137.8045  162.6177 C.3     1  UNL1        0.0898
     10 O         137.3701  140.5231  162.5446 O.2     1  UNL1       -0.2702
     11 C         138.2432  140.0718  161.4115 C.2     1  UNL1        0.2456
     12 N         138.8764  138.7125  161.4480 N.am    1  UNL1       -0.3009
     13 H         139.4495  138.4163  160.7044 H       1  UNL1        0.1497
     14 C         138.4832  140.9798  160.2419 C.2     1  UNL1        0.0525
     15 C         138.0042  140.5862  158.8761 C.2     1  UNL1       -0.0153
     16 C         138.2442  141.4942  157.7066 C.3     1  UNL1        0.0726
     17 C         138.9633  142.7959  157.9029 C.2     1  UNL1        0.0933
     18 N         139.3419  143.8876  156.9463 N.am    1  UNL1       -0.1431
     19 C         140.0549  144.9560  157.7210 C.2     1  UNL1        0.4298
     20 O         140.6087  146.2318  157.1591 O.2     1  UNL1       -0.2238
     21 O         140.1170  144.5245  159.1563 O.3     1  UNL1       -0.4079
     22 C         139.4424  143.1896  159.2687 C.2     1  UNL1        0.1618
     23 C         139.2024  142.2815  160.4382 C.2     1  UNL1        0.0429
     24 O         141.0135  140.5255  169.1569 O.3     1  UNL1       -0.4295
     25 C         141.3725  141.9512  168.8590 C.3     1  UNL1        0.2367
     26 C         141.4259  142.4300  167.4384 C.ar    1  UNL1        0.0212
     27 C         140.1964  142.9947  166.7906 C.ar    1  UNL1        0.0031
     28 C         140.2497  143.4735  165.3701 C.ar    1  UNL1        0.0712
     29 C         141.5326  143.3876  164.5974 C.ar    1  UNL1        0.0077
     30 C         142.7620  142.8229  165.2452 C.ar    1  UNL1        0.0712
     31 C         142.7086  142.3441  166.6657 C.ar    1  UNL1        0.0031
     32 C         139.0204  144.0381  164.7223 C.3     1  UNL1        0.4186
     33 F         137.7910  144.6028  164.0745 F       1  UNL1       -0.1659
     34 F         139.0932  142.9799  163.6617 F       1  UNL1       -0.1659
     35 F         138.9475  145.0963  165.7829 F       1  UNL1       -0.1659
     36 C         144.0448  142.7370  164.4725 C.3     1  UNL1        0.4186
     37 F         145.3276  142.6511  163.6998 F       1  UNL1       -0.1659
     38 F         144.7802  143.3544  165.6248 F       1  UNL1       -0.1659
     39 F         143.3093  142.1196  163.3201 F       1  UNL1       -0.1659
@<TRIPOS>BOND
     1    10    11    2
     2    11    12   am
     3    12     9    1
     4     1     9    1
     5     1     2    1
     6     2     3    1
     7     3     4    1
     8     4     5   am
     9     5     6    2
    10     5    24    1
    11    24    25    1
    12    25    26    1
    13    26    27   ar
    14    27    28   ar
    15    28    32    1
    16    32    33    1
    17    32    34    1
    18    32    35    1
    19    28    29   ar
    20    29    30   ar
    21    30    36    1
    22    36    37    1
    23    36    38    1
    24    36    39    1
    25    30    31   ar
    26     4     7    1
    27     8     7    1
    28    11    14    1
    29    14    15    2
    30    15    16    1
    31    16    17    1
    32    17    18    2
    33    18    19    1
    34    19    20    2
    35    19    21    1
    36    21    22    1
    37    22    23    2
    38     8     1    1
    39    23    14    1
    40     8     2    1
    41    22    17    1
    42    31    26   ar
    43    12    13    1
@<TRIPOS>MOLECULE
*****
 39 43 0 0 0
SMALL
GASTEIGER

@<TRIPOS>ATOM
      1 C         141.4626  137.9754  162.7759 C.3     1  UNL1        0.0230
      2 C         142.2339  137.8527  161.4952 C.3     1  UNL1        0.0234
      3 C         142.8879  138.0148  160.1551 C.3     1  UNL1        0.0968
      4 N         142.4887  139.3511  159.6030 N.am    1  UNL1       -0.2460
      5 C         142.9154  139.9232  158.2837 C.2     1  UNL1        0.4052
      6 O         143.8245  139.1386  157.3848 O.2     1  UNL1       -0.2262
      7 C         141.5879  140.0150  160.6019 C.3     1  UNL1        0.0968
      8 C         141.4304  139.0889  161.7714 C.3     1  UNL1        0.0234
      9 C         141.0360  137.4033  164.0953 C.3     1  UNL1        0.0898
     10 O         138.9668  139.4004  164.9499 O.2     1  UNL1       -0.2702
     11 C         140.1977  139.1930  165.7818 C.2     1  UNL1        0.2456
     12 N         141.2322  138.1945  165.3545 N.am    1  UNL1       -0.3009
     13 H         142.0401  138.0584  165.9005 H       1  UNL1        0.1497
     14 C         140.3939  139.9842  167.0410 C.2     1  UNL1        0.0525
     15 C         139.3600  139.9348  168.1266 C.2     1  UNL1       -0.0153
     16 C         139.5563  140.7259  169.3858 C.3     1  UNL1        0.0726
     17 C         140.7865  141.5665  169.5593 C.2     1  UNL1        0.0933
     18 N         141.2502  142.4472  170.6816 N.am    1  UNL1       -0.1431
     19 C         142.5707  143.0408  170.2896 C.2     1  UNL1        0.4298
     20 O         143.3943  143.9829  171.1168 O.2     1  UNL1       -0.2238
     21 O         142.9231  142.5271  168.9250 O.3     1  UNL1       -0.4079
     22 C         141.8204  141.6159  168.4738 C.2     1  UNL1        0.1618
     23 C         141.6241  140.8247  167.2146 C.2     1  UNL1        0.0429
     24 O         142.4329  141.2798  157.8632 O.3     1  UNL1       -0.4295
     25 C         143.1958  142.5061  158.2685 C.3     1  UNL1        0.2367
     26 C         143.0570  143.0501  159.6595 C.ar    1  UNL1        0.0212
     27 C         141.9542  144.0148  159.9809 C.ar    1  UNL1        0.0031
     28 C         141.8154  144.5588  161.3719 C.ar    1  UNL1        0.0712
     29 C         142.7794  144.1381  162.4414 C.ar    1  UNL1        0.0077
     30 C         143.8821  143.1735  162.1199 C.ar    1  UNL1        0.0712
     31 C         144.0209  142.6295  160.7290 C.ar    1  UNL1        0.0031
     32 C         140.7126  145.5234  161.6933 C.3     1  UNL1        0.4186
     33 F         139.6099  146.4880  162.0148 F       1  UNL1       -0.1659
     34 F         140.9763  145.3367  163.1582 F       1  UNL1       -0.1659
     35 F         140.4489  145.7101  160.2286 F       1  UNL1       -0.1659
     36 C         144.8461  142.7528  163.1895 C.3     1  UNL1        0.4186
     37 F         145.8101  142.3322  164.2590 F       1  UNL1       -0.1659
     38 F         144.0986  143.5836  164.1899 F       1  UNL1       -0.1659
     39 F         145.5937  141.9220  162.1889 F       1  UNL1       -0.1659
@<TRIPOS>BOND
     1    10    11    2
     2    11    12   am
     3    12     9    1
     4     1     9    1
     5     1     2    1
     6     2     3    1
     7     3     4    1
     8     4     5   am
     9     5     6    2
    10     5    24    1
    11    24    25    1
    12    25    26    1
    13    26    27   ar
    14    27    28   ar
    15    28    32    1
    16    32    33    1
    17    32    34    1
    18    32    35    1
    19    28    29   ar
    20    29    30   ar
    21    30    36    1
    22    36    37    1
    23    36    38    1
    24    36    39    1
    25    30    31   ar
    26     4     7    1
    27     8     7    1
    28    11    14    1
    29    14    15    2
    30    15    16    1
    31    16    17    1
    32    17    18    2
    33    18    19    1
    34    19    20    2
    35    19    21    1
    36    21    22    1
    37    22    23    2
    38     8     1    1
    39    23    14    1
    40     8     2    1
    41    22    17    1
    42    31    26   ar
    43    12    13    1
@<TRIPOS>MOLECULE
*****
 39 43 0 0 0
SMALL
GASTEIGER

@<TRIPOS>ATOM
      1 C         141.6144  137.9277  162.5982 C.3     1  UNL1        0.0230
      2 C         142.4040  137.8603  161.3247 C.3     1  UNL1        0.0234
      3 C         143.0615  138.0712  159.9931 C.3     1  UNL1        0.0968
      4 N         142.5943  139.3887  159.4490 N.am    1  UNL1       -0.2460
      5 C         143.0017  139.9962  158.1395 C.2     1  UNL1        0.4052
      6 O         143.9620  139.2719  157.2431 O.2     1  UNL1       -0.2262
      7 C         141.6481  139.9920  160.4443 C.3     1  UNL1        0.0968
      8 C         141.5305  139.0473  161.6036 C.3     1  UNL1        0.0234
      9 C         141.2069  137.3202  163.9077 C.3     1  UNL1        0.0898
     10 O         139.1172  139.3233  164.6954 O.2     1  UNL1       -0.2702
     11 C         140.3149  139.1051  165.5716 C.2     1  UNL1        0.2456
     12 N         141.3597  138.1035  165.1778 N.am    1  UNL1       -0.3009
     13 H         142.1458  137.9603  165.7530 H       1  UNL1        0.1497
     14 C         140.4677  139.8885  166.8417 C.2     1  UNL1        0.0525
     15 C         139.4052  139.8191  167.8982 C.2     1  UNL1       -0.0153
     16 C         139.5580  140.6024  169.1682 C.3     1  UNL1        0.0726
     17 C         140.7734  141.4551  169.3817 C.2     1  UNL1        0.0933
     18 N         141.1964  142.3321  170.5229 N.am    1  UNL1       -0.1431
     19 C         142.5203  142.9434  170.1717 C.2     1  UNL1        0.4298
     20 O         143.3103  143.8881  171.0282 O.2     1  UNL1       -0.2238
     21 O         142.9156  142.4443  168.8135 O.3     1  UNL1       -0.4079
     22 C         141.8360  141.5245  168.3253 C.2     1  UNL1        0.1618
     23 C         141.6831  140.7412  167.0553 C.2     1  UNL1        0.0429
     24 O         142.4490  141.3280  157.7262 O.3     1  UNL1       -0.4295
     25 C         143.1503  142.5901  158.1331 C.3     1  UNL1        0.2367
     26 C         142.9794  143.1285  159.5227 C.ar    1  UNL1        0.0212
     27 C         143.9389  142.7299  160.6047 C.ar    1  UNL1        0.0031
     28 C         143.7680  143.2683  161.9943 C.ar    1  UNL1        0.0712
     29 C         142.6376  144.2052  162.3018 C.ar    1  UNL1        0.0077
     30 C         141.6783  144.6038  161.2198 C.ar    1  UNL1        0.0712
     31 C         141.8492  144.0654  159.8303 C.ar    1  UNL1        0.0031
     32 C         144.7273  142.8697  163.0762 C.3     1  UNL1        0.4186
     33 F         145.6867  142.4712  164.1582 F       1  UNL1       -0.1659
     34 F         145.0736  141.6267  162.3113 F       1  UNL1       -0.1659
     35 F         144.3810  144.1127  163.8411 F       1  UNL1       -0.1659
     36 C         140.5479  145.5407  161.5274 C.3     1  UNL1        0.4186
     37 F         139.4177  146.4776  161.8349 F       1  UNL1       -0.1659
     38 F         139.9364  145.2416  160.1908 F       1  UNL1       -0.1659
     39 F         141.1596  145.8398  162.8641 F       1  UNL1       -0.1659
@<TRIPOS>BOND
     1    10    11    2
     2    11    12   am
     3    12     9    1
     4     1     9    1
     5     1     2    1
     6     2     3    1
     7     3     4    1
     8     4     5   am
     9     5     6    2
    10     5    24    1
    11    24    25    1
    12    25    26    1
    13    26    27   ar
    14    27    28   ar
    15    28    32    1
    16    32    33    1
    17    32    34    1
    18    32    35    1
    19    28    29   ar
    20    29    30   ar
    21    30    36    1
    22    36    37    1
    23    36    38    1
    24    36    39    1
    25    30    31   ar
    26     4     7    1
    27     8     7    1
    28    11    14    1
    29    14    15    2
    30    15    16    1
    31    16    17    1
    32    17    18    2
    33    18    19    1
    34    19    20    2
    35    19    21    1
    36    21    22    1
    37    22    23    2
    38     8     1    1
    39    23    14    1
    40     8     2    1
    41    22    17    1
    42    31    26   ar
    43    12    13    1
@<TRIPOS>MOLECULE
*****
 39 43 0 0 0
SMALL
GASTEIGER

@<TRIPOS>ATOM
      1 C         144.2124  143.5889  163.9042 C.3     1  UNL1        0.0230
      2 C         144.2516  143.1899  162.4587 C.3     1  UNL1        0.0234
      3 C         144.0191  142.9467  160.9970 C.3     1  UNL1        0.0968
      4 N         142.7277  143.6082  160.6166 N.am    1  UNL1       -0.2460
      5 C         142.1104  143.6162  159.2496 C.2     1  UNL1        0.4052
      6 O         142.7957  142.9171  158.1130 O.2     1  UNL1       -0.2262
      7 C         142.1621  144.2603  161.8432 C.3     1  UNL1        0.0968
      8 C         143.1039  144.0018  162.9818 C.3     1  UNL1        0.0234
      9 C         144.8297  143.5809  165.2712 C.3     1  UNL1        0.0898
     10 O         143.3792  140.9569  165.3735 O.2     1  UNL1       -0.2702
     11 C         143.2713  141.9187  166.5195 C.2     1  UNL1        0.2456
     12 N         143.9965  143.2307  166.4684 N.am    1  UNL1       -0.3009
     13 H         143.9257  143.8619  167.2205 H       1  UNL1        0.1497
     14 C         142.4381  141.5684  167.7167 C.2     1  UNL1        0.0525
     15 C         142.9420  141.8732  169.0963 C.2     1  UNL1       -0.0153
     16 C         142.1088  141.5229  170.2934 C.3     1  UNL1        0.0726
     17 C         140.7717  140.8680  170.1109 C.2     1  UNL1        0.0933
     18 N         139.7357  140.4102  171.0945 N.am    1  UNL1       -0.1431
     19 C         138.5916  139.8226  170.3227 C.2     1  UNL1        0.4298
     20 O         137.3385  139.2422  170.9085 O.2     1  UNL1       -0.2238
     21 O         138.9205  139.9172  168.8622 O.3     1  UNL1       -0.4079
     22 C         140.2678  140.5633  168.7314 C.2     1  UNL1        0.1618
     23 C         141.1010  140.9135  167.5343 C.2     1  UNL1        0.0429
     24 O         140.8078  144.3233  159.0190 O.3     1  UNL1       -0.4295
     25 C         139.5249  143.5461  159.0044 C.3     1  UNL1        0.2367
     26 C         138.9895  142.9584  160.2764 C.ar    1  UNL1        0.0212
     27 C         138.5792  141.5162  160.3217 C.ar    1  UNL1        0.0031
     28 C         138.0438  140.9284  161.5937 C.ar    1  UNL1        0.0712
     29 C         137.9189  141.7828  162.8203 C.ar    1  UNL1        0.0077
     30 C         138.3293  143.2248  162.7750 C.ar    1  UNL1        0.0712
     31 C         138.8646  143.8126  161.5030 C.ar    1  UNL1        0.0031
     32 C         137.6335  139.4864  161.6391 C.3     1  UNL1        0.4186
     33 F         137.2231  138.0444  161.6844 F       1  UNL1       -0.1659
     34 F         138.0173  139.4228  163.0878 F       1  UNL1       -0.1659
     35 F         137.2497  139.5500  160.1904 F       1  UNL1       -0.1659
     36 C         138.2043  144.0791  164.0016 C.3     1  UNL1        0.4186
     37 F         138.0793  144.9334  165.2282 F       1  UNL1       -0.1659
     38 F         137.3843  143.0108  164.6621 F       1  UNL1       -0.1659
     39 F         139.0244  145.1475  163.3410 F       1  UNL1       -0.1659
@<TRIPOS>BOND
     1    10    11    2
     2    11    12   am
     3    12     9    1
     4     1     9    1
     5     1     2    1
     6     2     3    1
     7     3     4    1
     8     4     5   am
     9     5     6    2
    10     5    24    1
    11    24    25    1
    12    25    26    1
    13    26    27   ar
    14    27    28   ar
    15    28    32    1
    16    32    33    1
    17    32    34    1
    18    32    35    1
    19    28    29   ar
    20    29    30   ar
    21    30    36    1
    22    36    37    1
    23    36    38    1
    24    36    39    1
    25    30    31   ar
    26     4     7    1
    27     8     7    1
    28    11    14    1
    29    14    15    2
    30    15    16    1
    31    16    17    1
    32    17    18    2
    33    18    19    1
    34    19    20    2
    35    19    21    1
    36    21    22    1
    37    22    23    2
    38     8     1    1
    39    23    14    1
    40     8     2    1
    41    22    17    1
    42    31    26   ar
    43    12    13    1
@<TRIPOS>MOLECULE
*****
 39 43 0 0 0
SMALL
GASTEIGER

@<TRIPOS>ATOM
      1 C         143.0174  139.3056  159.7736 C.3     1  UNL1        0.0230
      2 C         143.3114  138.6705  161.1003 C.3     1  UNL1        0.0234
      3 C         143.5620  138.3253  162.5384 C.3     1  UNL1        0.0968
      4 N         143.4162  139.5794  163.3483 N.am    1  UNL1       -0.2460
      5 C         143.5820  139.6933  164.8347 C.2     1  UNL1        0.4052
      6 O         143.9254  138.4794  165.6463 O.2     1  UNL1       -0.2262
      7 C         143.0754  140.6997  162.4108 C.3     1  UNL1        0.0968
      8 C         143.0106  140.1379  161.0215 C.3     1  UNL1        0.0234
      9 C         142.8516  139.1917  158.2872 C.3     1  UNL1        0.0898
     10 O         140.6226  137.5687  157.1050 O.2     1  UNL1       -0.2702
     11 C         142.0384  137.0835  157.0050 C.2     1  UNL1        0.2456
     12 N         143.1529  137.8950  157.5960 N.am    1  UNL1       -0.3009
     13 H         144.0821  137.5765  157.5303 H       1  UNL1        0.1497
     14 C         142.3398  135.7867  156.3138 C.2     1  UNL1        0.0525
     15 C         141.6650  135.4539  155.0162 C.2     1  UNL1       -0.0153
     16 C         141.9663  134.1572  154.3251 C.3     1  UNL1        0.0726
     17 C         142.9425  133.1932  154.9316 C.2     1  UNL1        0.0933
     18 N         143.4354  131.8490  154.4841 N.am    1  UNL1       -0.1431
     19 C         144.4148  131.3510  155.5053 C.2     1  UNL1        0.4298
     20 O         145.1524  130.0458  155.4565 O.2     1  UNL1       -0.2238
     21 O         144.5272  132.3875  156.5838 O.3     1  UNL1       -0.4079
     22 C         143.6173  133.5260  156.2293 C.2     1  UNL1        0.1618
     23 C         143.3159  134.8227  156.9203 C.2     1  UNL1        0.0429
     24 O         143.4044  141.0210  165.5097 O.3     1  UNL1       -0.4295
     25 C         142.2362  141.2478  166.4229 C.3     1  UNL1        0.2367
     26 C         140.8468  140.9273  165.9572 C.ar    1  UNL1        0.0212
     27 C         140.1436  141.8490  165.0052 C.ar    1  UNL1        0.0031
     28 C         138.7543  141.5285  164.5395 C.ar    1  UNL1        0.0712
     29 C         138.0681  140.2863  165.0256 C.ar    1  UNL1        0.0077
     30 C         138.7713  139.3647  165.9774 C.ar    1  UNL1        0.0712
     31 C         140.1607  139.6852  166.4432 C.ar    1  UNL1        0.0031
     32 C         138.0510  142.4501  163.5876 C.3     1  UNL1        0.4186
     33 F         137.3478  143.3717  162.6358 F       1  UNL1       -0.1659
     34 F         137.3812  143.1326  164.7433 F       1  UNL1       -0.1659
     35 F         138.7209  141.7677  162.4320 F       1  UNL1       -0.1659
     36 C         138.0852  138.1225  166.4636 C.3     1  UNL1        0.4186
     37 F         137.3991  136.8804  166.9497 F       1  UNL1       -0.1659
     38 F         137.5472  138.8805  167.6408 F       1  UNL1       -0.1659
     39 F         138.6233  137.3646  165.2862 F       1  UNL1       -0.1659
@<TRIPOS>BOND
     1    10    11    2
     2    11    12   am
     3    12     9    1
     4     1     9    1
     5     1     2    1
     6     2     3    1
     7     3     4    1
     8     4     5   am
     9     5     6    2
    10     5    24    1
    11    24    25    1
    12    25    26    1
    13    26    27   ar
    14    27    28   ar
    15    28    32    1
    16    32    33    1
    17    32    34    1
    18    32    35    1
    19    28    29   ar
    20    29    30   ar
    21    30    36    1
    22    36    37    1
    23    36    38    1
    24    36    39    1
    25    30    31   ar
    26     4     7    1
    27     8     7    1
    28    11    14    1
    29    14    15    2
    30    15    16    1
    31    16    17    1
    32    17    18    2
    33    18    19    1
    34    19    20    2
    35    19    21    1
    36    21    22    1
    37    22    23    2
    38     8     1    1
    39    23    14    1
    40     8     2    1
    41    22    17    1
    42    31    26   ar
    43    12    13    1
