@<TRIPOS>MOLECULE
*****
 26 28 0 0 0
SMALL
GASTEIGER

@<TRIPOS>ATOM
      1 C         143.1064  140.3741  162.9685 C.ar    1  UNL1        0.0884
      2 C         142.4993  141.4930  162.1751 C.ar    1  UNL1        0.0509
      3 C         141.5815  142.4738  162.8426 C.ar    1  UNL1        0.1360
      4 N         141.2707  142.3358  164.3035 N.ar    1  UNL1       -0.1985
      5 C         141.8777  141.2169  165.0969 C.ar    1  UNL1        0.2239
      6 N         142.7955  140.2360  164.4294 N.ar    1  UNL1       -0.2160
      7 N         140.9745  143.5928  162.0491 N.pl3   1  UNL1       -0.2880
      8 C         140.7835  143.4447  160.5687 C.3     1  UNL1        0.1242
      9 C         140.1765  144.5636  159.7752 C.3     1  UNL1        0.1636
     10 O         139.7605  145.8306  160.4621 O.3     1  UNL1       -0.3501
     11 C         139.9515  145.9786  161.9425 C.3     1  UNL1        0.1636
     12 C         140.5586  144.8597  162.7360 C.3     1  UNL1        0.1242
     13 N         141.5669  141.0787  166.5579 N.am    1  UNL1       -0.2478
     14 C         140.3580  140.3075  166.9978 C.2     1  UNL1        0.2891
     15 O         139.4597  139.6744  165.9769 O.2     1  UNL1       -0.2663
     16 H         142.1564  141.4943  167.2280 H       1  UNL1        0.1581
     17 C         140.0472  140.1694  168.4588 C.ar    1  UNL1        0.2303
     18 C         140.9945  140.4366  169.5908 C.ar    1  UNL1        0.0690
     19 C         140.2673  140.1722  170.8759 C.ar    1  UNL1        0.1440
     20 N         138.8706  139.7417  170.5381 N.ar    1  UNL1       -0.0751
     21 O         138.7346  139.7400  169.0443 O.2     1  UNL1       -0.3487
     22 C         144.0242  139.3932  162.3010 C.3     1  UNL1        0.1964
     23 C         142.9605  137.5322  160.2021 C.3     1  UNL1        0.1765
     24 S         143.4923  138.4627  161.2516 S.O2    1  UNL1       -0.0025
     25 O         144.3611  139.1252  160.2239 O.2     1  UNL1       -0.1726
     26 O         142.6235  137.8003  162.2793 O.2     1  UNL1       -0.1726
@<TRIPOS>BOND
     1    23    24    1
     2    24    25    2
     3    24    26    2
     4    24    22    1
     5    22     1    1
     6     1     2   ar
     7     2     3   ar
     8     3     7    1
     9     7     8    1
    10     8     9    1
    11     9    10    1
    12    10    11    1
    13    11    12    1
    14     3     4   ar
    15     4     5   ar
    16     5    13    1
    17    13    14   am
    18    14    15    2
    19    14    17    1
    20    17    18   ar
    21    18    19   ar
    22    19    20   ar
    23    20    21   ar
    24     5     6   ar
    25     6     1   ar
    26    12     7    1
    27    21    17   ar
    28    13    16    1
@<TRIPOS>MOLECULE
*****
 26 28 0 0 0
SMALL
GASTEIGER

@<TRIPOS>ATOM
      1 C         140.3643  144.2149  163.2202 C.ar    1  UNL1        0.0884
      2 C         139.7857  143.0092  162.5410 C.ar    1  UNL1        0.0509
      3 C         139.3294  141.8358  163.3564 C.ar    1  UNL1        0.1360
      4 N         139.4516  141.8681  164.8510 N.ar    1  UNL1       -0.1985
      5 C         140.0303  143.0738  165.5303 C.ar    1  UNL1        0.2239
      6 N         140.4866  144.2472  164.7148 N.ar    1  UNL1       -0.2160
      7 N         138.7507  140.6300  162.6771 N.pl3   1  UNL1       -0.2880
      8 C         137.9160  140.7936  161.4416 C.3     1  UNL1        0.1242
      9 C         137.3374  139.5879  160.7623 C.3     1  UNL1        0.1636
     10 O         137.5935  138.2186  161.3185 O.3     1  UNL1       -0.3501
     11 C         138.4282  138.0550  162.5540 C.3     1  UNL1        0.1636
     12 C         139.0068  139.2607  163.2333 C.3     1  UNL1        0.1242
     13 N         140.1526  143.1062  167.0250 N.am    1  UNL1       -0.2478
     14 C         141.0669  142.1440  167.7237 C.2     1  UNL1        0.2891
     15 O         141.8589  141.1495  166.9277 O.2     1  UNL1       -0.2663
     16 H         139.6327  143.7590  167.5474 H       1  UNL1        0.1581
     17 C         141.1892  142.1764  169.2184 C.ar    1  UNL1        0.2303
     18 C         142.4603  142.3511  169.9953 C.ar    1  UNL1        0.0690
     19 C         142.1186  142.3225  171.4557 C.ar    1  UNL1        0.1440
     20 N         140.6363  142.1300  171.5811 N.ar    1  UNL1       -0.0751
     21 O         140.0619  142.0398  170.1984 O.2     1  UNL1       -0.3487
     22 C         140.8206  145.3883  162.4048 C.3     1  UNL1        0.1964
     23 C         140.3872  145.4116  159.4364 C.3     1  UNL1        0.1765
     24 S         140.6039  145.4000  160.9206 S.O2    1  UNL1       -0.0025
     25 O         139.2617  146.0387  161.1216 O.2     1  UNL1       -0.1726
     26 O         141.9462  144.7613  160.7196 O.2     1  UNL1       -0.1726
@<TRIPOS>BOND
     1    23    24    1
     2    24    25    2
     3    24    26    2
     4    24    22    1
     5    22     1    1
     6     1     2   ar
     7     2     3   ar
     8     3     7    1
     9     7     8    1
    10     8     9    1
    11     9    10    1
    12    10    11    1
    13    11    12    1
    14     3     4   ar
    15     4     5   ar
    16     5    13    1
    17    13    14   am
    18    14    15    2
    19    14    17    1
    20    17    18   ar
    21    18    19   ar
    22    19    20   ar
    23    20    21   ar
    24     5     6   ar
    25     6     1   ar
    26    12     7    1
    27    21    17   ar
    28    13    16    1
@<TRIPOS>MOLECULE
*****
 26 28 0 0 0
SMALL
GASTEIGER

@<TRIPOS>ATOM
      1 C         143.4440  140.2973  161.8890 C.ar    1  UNL1        0.0884
      2 C         142.6452  141.4618  161.3834 C.ar    1  UNL1        0.0509
      3 C         142.0623  142.4483  162.3515 C.ar    1  UNL1        0.1360
      4 N         142.2783  142.2702  163.8251 N.ar    1  UNL1       -0.1985
      5 C         143.0771  141.1057  164.3307 C.ar    1  UNL1        0.2239
      6 N         143.6600  140.1192  163.3627 N.ar    1  UNL1       -0.2160
      7 N         141.2634  143.6129  161.8458 N.pl3   1  UNL1       -0.2880
      8 C         140.2838  144.2998  162.7506 C.3     1  UNL1        0.1242
      9 C         139.4850  145.4643  162.2450 C.3     1  UNL1        0.1636
     10 O         139.6657  145.9419  160.8345 O.3     1  UNL1       -0.3501
     11 C         140.6453  145.2550  159.9298 C.3     1  UNL1        0.1636
     12 C         141.4441  144.0905  160.4354 C.3     1  UNL1        0.1242
     13 N         143.2931  140.9276  165.8044 N.am    1  UNL1       -0.2478
     14 C         142.3896  140.0251  166.5912 C.2     1  UNL1        0.2891
     15 O         141.2700  139.3006  165.9043 O.2     1  UNL1       -0.2663
     16 H         144.0279  141.4031  166.2552 H       1  UNL1        0.1581
     17 C         142.6056  139.8470  168.0649 C.ar    1  UNL1        0.2303
     18 C         142.3572  140.8803  169.1235 C.ar    1  UNL1        0.0690
     19 C         142.7060  140.2763  170.4516 C.ar    1  UNL1        0.1440
     20 N         143.1699  138.8698  170.2136 N.ar    1  UNL1       -0.0751
     21 O         143.1078  138.6045  168.7386 O.2     1  UNL1       -0.3487
     22 C         144.0269  139.3108  160.9210 C.3     1  UNL1        0.1964
     23 C         142.2948  138.0906  158.7971 C.3     1  UNL1        0.1765
     24 S         143.1609  138.7007  159.8591 S.O2    1  UNL1       -0.0025
     25 O         142.3668  137.9903  160.9148 O.2     1  UNL1       -0.1726
     26 O         143.9550  139.4112  158.8033 O.2     1  UNL1       -0.1726
@<TRIPOS>BOND
     1    23    24    1
     2    24    25    2
     3    24    26    2
     4    24    22    1
     5    22     1    1
     6     1     2   ar
     7     2     3   ar
     8     3     7    1
     9     7     8    1
    10     8     9    1
    11     9    10    1
    12    10    11    1
    13    11    12    1
    14     3     4   ar
    15     4     5   ar
    16     5    13    1
    17    13    14   am
    18    14    15    2
    19    14    17    1
    20    17    18   ar
    21    18    19   ar
    22    19    20   ar
    23    20    21   ar
    24     5     6   ar
    25     6     1   ar
    26    12     7    1
    27    21    17   ar
    28    13    16    1
@<TRIPOS>MOLECULE
*****
 26 28 0 0 0
SMALL
GASTEIGER

@<TRIPOS>ATOM
      1 C         140.4893  139.4885  162.4774 C.ar    1  UNL1        0.0884
      2 C         140.4377  140.8006  161.7523 C.ar    1  UNL1        0.0509
      3 C         140.0437  142.0481  162.4861 C.ar    1  UNL1        0.1360
      4 N         139.7013  141.9836  163.9450 N.ar    1  UNL1       -0.1985
      5 C         139.7529  140.6715  164.6702 C.ar    1  UNL1        0.2239
      6 N         140.1469  139.4240  163.9364 N.ar    1  UNL1       -0.2160
      7 N         139.9922  143.3602  161.7609 N.pl3   1  UNL1       -0.2880
      8 C         139.7552  144.6298  162.5236 C.3     1  UNL1        0.1242
      9 C         139.7036  145.9419  161.7985 C.3     1  UNL1        0.1636
     10 O         139.8890  145.9843  160.3105 O.3     1  UNL1       -0.3501
     11 C         140.1261  144.7146  159.5478 C.3     1  UNL1        0.1636
     12 C         140.1776  143.4025  160.2730 C.3     1  UNL1        0.1242
     13 N         139.4104  140.6070  166.1292 N.am    1  UNL1       -0.2478
     14 C         140.4040  140.0571  167.1091 C.2     1  UNL1        0.2891
     15 O         141.7400  139.5717  166.6302 O.2     1  UNL1       -0.2663
     16 H         138.5335  140.9255  166.4436 H       1  UNL1        0.1581
     17 C         140.0615  139.9925  168.5682 C.ar    1  UNL1        0.2303
     18 C         141.0213  140.1676  169.7076 C.ar    1  UNL1        0.0690
     19 C         140.2522  140.0248  170.9875 C.ar    1  UNL1        0.1440
     20 N         138.8171  139.7615  170.6390 N.ar    1  UNL1       -0.0751
     21 O         138.6993  139.7415  169.1438 O.2     1  UNL1       -0.3487
     22 C         140.8833  138.2410  161.7437 C.3     1  UNL1        0.1964
     23 C         143.7373  137.8241  160.9185 C.3     1  UNL1        0.1765
     24 S         142.3103  138.0326  161.3311 S.O2    1  UNL1       -0.0025
     25 O         141.9106  138.1483  159.8900 O.2     1  UNL1       -0.1726
     26 O         142.7100  137.9169  162.7722 O.2     1  UNL1       -0.1726
@<TRIPOS>BOND
     1    23    24    1
     2    24    25    2
     3    24    26    2
     4    24    22    1
     5    22     1    1
     6     1     2   ar
     7     2     3   ar
     8     3     7    1
     9     7     8    1
    10     8     9    1
    11     9    10    1
    12    10    11    1
    13    11    12    1
    14     3     4   ar
    15     4     5   ar
    16     5    13    1
    17    13    14   am
    18    14    15    2
    19    14    17    1
    20    17    18   ar
    21    18    19   ar
    22    19    20   ar
    23    20    21   ar
    24     5     6   ar
    25     6     1   ar
    26    12     7    1
    27    21    17   ar
    28    13    16    1
@<TRIPOS>MOLECULE
*****
 26 28 0 0 0
SMALL
GASTEIGER

@<TRIPOS>ATOM
      1 C         139.2366  142.2718  162.9654 C.ar    1  UNL1        0.0884
      2 C         140.0999  141.4687  162.0383 C.ar    1  UNL1        0.0509
      3 C         140.8410  140.2704  162.5530 C.ar    1  UNL1        0.1360
      4 N         140.7188  139.8752  163.9948 N.ar    1  UNL1       -0.1985
      5 C         139.8554  140.6784  164.9219 C.ar    1  UNL1        0.2239
      6 N         139.1144  141.8766  164.4072 N.ar    1  UNL1       -0.2160
      7 N         141.7044  139.4672  161.6258 N.pl3   1  UNL1       -0.2880
      8 C         141.3048  139.2941  160.1904 C.3     1  UNL1        0.1242
      9 C         142.1681  138.4910  159.2632 C.3     1  UNL1        0.1636
     10 O         143.4310  137.8610  159.7714 O.3     1  UNL1       -0.3501
     11 C         143.8306  138.0341  161.2068 C.3     1  UNL1        0.1636
     12 C         142.9672  138.8373  162.1340 C.3     1  UNL1        0.1242
     13 N         139.7331  140.2832  166.3638 N.am    1  UNL1       -0.2478
     14 C         140.3778  141.1207  167.4282 C.2     1  UNL1        0.2891
     15 O         141.1448  142.3533  167.0508 O.2     1  UNL1       -0.2663
     16 H         139.2297  139.4742  166.6115 H       1  UNL1        0.1581
     17 C         140.2555  140.7255  168.8701 C.ar    1  UNL1        0.2303
     18 C         141.1396  141.1897  169.9895 C.ar    1  UNL1        0.0690
     19 C         140.6582  140.5479  171.2570 C.ar    1  UNL1        0.1440
     20 N         139.4766  139.6871  170.9208 N.ar    1  UNL1       -0.0751
     21 O         139.2278  139.7969  169.4457 O.2     1  UNL1       -0.3487
     22 C         138.4955  143.4701  162.4507 C.3     1  UNL1        0.1964
     23 C         139.9628  146.0369  161.9424 C.3     1  UNL1        0.1765
     24 S         139.2292  144.7535  162.1966 S.O2    1  UNL1       -0.0025
     25 O         139.2016  145.0600  163.6646 O.2     1  UNL1       -0.1726
     26 O         139.2567  144.4470  160.7285 O.2     1  UNL1       -0.1726
@<TRIPOS>BOND
     1    23    24    1
     2    24    25    2
     3    24    26    2
     4    24    22    1
     5    22     1    1
     6     1     2   ar
     7     2     3   ar
     8     3     7    1
     9     7     8    1
    10     8     9    1
    11     9    10    1
    12    10    11    1
    13    11    12    1
    14     3     4   ar
    15     4     5   ar
    16     5    13    1
    17    13    14   am
    18    14    15    2
    19    14    17    1
    20    17    18   ar
    21    18    19   ar
    22    19    20   ar
    23    20    21   ar
    24     5     6   ar
    25     6     1   ar
    26    12     7    1
    27    21    17   ar
    28    13    16    1
@<TRIPOS>MOLECULE
*****
 26 28 0 0 0
SMALL
GASTEIGER

@<TRIPOS>ATOM
      1 C         140.2153  145.0055  161.7915 C.ar    1  UNL1        0.0884
      2 C         141.2325  144.0207  162.2869 C.ar    1  UNL1        0.0509
      3 C         142.3830  143.6252  161.4094 C.ar    1  UNL1        0.1360
      4 N         142.5163  144.2145  160.0364 N.ar    1  UNL1       -0.1985
      5 C         141.4991  145.1993  159.5411 C.ar    1  UNL1        0.2239
      6 N         140.3486  145.5948  160.4186 N.ar    1  UNL1       -0.2160
      7 N         143.4002  142.6404  161.9048 N.pl3   1  UNL1       -0.2880
      8 C         143.3458  141.2124  161.4488 C.3     1  UNL1        0.1242
      9 C         144.3629  140.2276  161.9442 C.3     1  UNL1        0.1636
     10 O         145.4346  140.6707  162.8957 O.3     1  UNL1       -0.3501
     11 C         145.4891  142.0986  163.3517 C.3     1  UNL1        0.1636
     12 C         144.4718  143.0835  162.8562 C.3     1  UNL1        0.1242
     13 N         141.6323  145.7887  158.1681 N.am    1  UNL1       -0.2478
     14 C         140.7008  145.3589  157.0738 C.2     1  UNL1        0.2891
     15 O         139.6360  144.3397  157.3524 O.2     1  UNL1       -0.2663
     16 H         142.3311  146.4576  157.9852 H       1  UNL1        0.1581
     17 C         140.8340  145.9482  155.7008 C.ar    1  UNL1        0.2303
     18 C         141.6071  145.3576  154.5591 C.ar    1  UNL1        0.0690
     19 C         141.4684  146.2760  153.3812 C.ar    1  UNL1        0.1440
     20 N         140.6096  147.4342  153.7950 N.ar    1  UNL1       -0.0751
     21 O         140.2176  147.2316  155.2286 O.2     1  UNL1       -0.3487
     22 C         139.0649  145.4010  162.6690 C.3     1  UNL1        0.1964
     23 C         137.6779  143.3356  164.3455 C.3     1  UNL1        0.1765
     24 S         138.3714  144.3683  163.5073 S.O2    1  UNL1       -0.0025
     25 O         137.7750  143.7648  162.2704 O.2     1  UNL1       -0.1726
     26 O         138.9678  144.9719  164.7442 O.2     1  UNL1       -0.1726
@<TRIPOS>BOND
     1    23    24    1
     2    24    25    2
     3    24    26    2
     4    24    22    1
     5    22     1    1
     6     1     2   ar
     7     2     3   ar
     8     3     7    1
     9     7     8    1
    10     8     9    1
    11     9    10    1
    12    10    11    1
    13    11    12    1
    14     3     4   ar
    15     4     5   ar
    16     5    13    1
    17    13    14   am
    18    14    15    2
    19    14    17    1
    20    17    18   ar
    21    18    19   ar
    22    19    20   ar
    23    20    21   ar
    24     5     6   ar
    25     6     1   ar
    26    12     7    1
    27    21    17   ar
    28    13    16    1
@<TRIPOS>MOLECULE
*****
 26 28 0 0 0
SMALL
GASTEIGER

@<TRIPOS>ATOM
      1 C         142.2139  143.8885  161.8159 C.ar    1  UNL1        0.0884
      2 C         141.3835  142.6628  162.0570 C.ar    1  UNL1        0.0509
      3 C         140.0997  142.4670  161.3063 C.ar    1  UNL1        0.1360
      4 N         139.6463  143.4969  160.3145 N.ar    1  UNL1       -0.1985
      5 C         140.4767  144.7226  160.0734 C.ar    1  UNL1        0.2239
      6 N         141.7605  144.9184  160.8241 N.ar    1  UNL1       -0.2160
      7 N         139.2693  141.2413  161.5475 N.pl3   1  UNL1       -0.2880
      8 C         138.3632  140.7252  160.4693 C.3     1  UNL1        0.1242
      9 C         137.5328  139.4995  160.7103 C.3     1  UNL1        0.1636
     10 O         137.6086  138.7899  162.0297 O.3     1  UNL1       -0.3501
     11 C         138.5147  139.3059  163.1080 C.3     1  UNL1        0.1636
     12 C         139.3451  140.5317  162.8668 C.3     1  UNL1        0.1242
     13 N         140.0233  145.7525  159.0816 N.am    1  UNL1       -0.2478
     14 C         140.3669  145.5980  157.6297 C.2     1  UNL1        0.2891
     15 O         141.1639  144.4134  157.1696 O.2     1  UNL1       -0.2663
     16 H         139.5002  146.5300  159.3836 H       1  UNL1        0.1581
     17 C         139.9134  146.6279  156.6379 C.ar    1  UNL1        0.2303
     18 C         140.3427  146.7196  155.2035 C.ar    1  UNL1        0.0690
     19 C         139.6458  147.8953  154.5854 C.ar    1  UNL1        0.1440
     20 N         138.7858  148.5302  155.6378 N.ar    1  UNL1       -0.0751
     21 O         138.9512  147.7469  156.9062 O.2     1  UNL1       -0.3487
     22 C         143.4977  144.0843  162.5666 C.3     1  UNL1        0.1964
     23 C         145.4433  141.8157  162.8282 C.3     1  UNL1        0.1765
     24 S         144.4705  142.9500  162.6974 S.O2    1  UNL1       -0.0025
     25 O         144.6944  142.9711  161.2144 O.2     1  UNL1       -0.1726
     26 O         144.2465  142.9290  164.1804 O.2     1  UNL1       -0.1726
@<TRIPOS>BOND
     1    23    24    1
     2    24    25    2
     3    24    26    2
     4    24    22    1
     5    22     1    1
     6     1     2   ar
     7     2     3   ar
     8     3     7    1
     9     7     8    1
    10     8     9    1
    11     9    10    1
    12    10    11    1
    13    11    12    1
    14     3     4   ar
    15     4     5   ar
    16     5    13    1
    17    13    14   am
    18    14    15    2
    19    14    17    1
    20    17    18   ar
    21    18    19   ar
    22    19    20   ar
    23    20    21   ar
    24     5     6   ar
    25     6     1   ar
    26    12     7    1
    27    21    17   ar
    28    13    16    1
@<TRIPOS>MOLECULE
*****
 26 28 0 0 0
SMALL
GASTEIGER

@<TRIPOS>ATOM
      1 C         136.3875  141.2859  156.1375 C.ar    1  UNL1        0.0884
      2 C         137.1287  142.5386  155.7752 C.ar    1  UNL1        0.0509
      3 C         138.1895  143.0738  156.6908 C.ar    1  UNL1        0.1360
      4 N         138.5091  142.3564  157.9687 N.ar    1  UNL1       -0.1985
      5 C         137.7679  141.1037  158.3310 C.ar    1  UNL1        0.2239
      6 N         136.7071  140.5684  157.4154 N.ar    1  UNL1       -0.2160
      7 N         138.9307  144.3266  156.3284 N.pl3   1  UNL1       -0.2880
      8 C         140.2314  144.6499  157.0019 C.3     1  UNL1        0.1242
      9 C         140.9727  145.9025  156.6396 C.3     1  UNL1        0.1636
     10 O         140.4132  146.8321  155.6037 O.3     1  UNL1       -0.3501
     11 C         139.1125  146.5088  154.9302 C.3     1  UNL1        0.1636
     12 C         138.3712  145.2560  155.2925 C.3     1  UNL1        0.1242
     13 N         138.0874  140.3861  159.6090 N.am    1  UNL1       -0.2478
     14 C         139.0338  139.2225  159.5993 C.2     1  UNL1        0.2891
     15 O         139.6608  138.7763  158.3117 O.2     1  UNL1       -0.2663
     16 H         137.6760  140.6790  160.4541 H       1  UNL1        0.1581
     17 C         139.3534  138.5049  160.8773 C.ar    1  UNL1        0.2303
     18 C         138.4279  138.3287  162.0445 C.ar    1  UNL1        0.0690
     19 C         139.1570  137.5525  163.1010 C.ar    1  UNL1        0.1440
     20 N         140.5331  137.2491  162.5866 N.ar    1  UNL1       -0.0751
     21 O         140.6544  137.8378  161.2123 O.2     1  UNL1       -0.3487
     22 C         135.3267  140.7507  155.2220 C.3     1  UNL1        0.1964
     23 C         133.1974  138.9304  156.2956 C.3     1  UNL1        0.1765
     24 S         134.2621  139.8406  155.7588 S.O2    1  UNL1       -0.0025
     25 O         135.1206  138.6513  155.4452 O.2     1  UNL1       -0.1726
     26 O         133.4035  141.0299  156.0723 O.2     1  UNL1       -0.1726
@<TRIPOS>BOND
     1    23    24    1
     2    24    25    2
     3    24    26    2
     4    24    22    1
     5    22     1    1
     6     1     2   ar
     7     2     3   ar
     8     3     7    1
     9     7     8    1
    10     8     9    1
    11     9    10    1
    12    10    11    1
    13    11    12    1
    14     3     4   ar
    15     4     5   ar
    16     5    13    1
    17    13    14   am
    18    14    15    2
    19    14    17    1
    20    17    18   ar
    21    18    19   ar
    22    19    20   ar
    23    20    21   ar
    24     5     6   ar
    25     6     1   ar
    26    12     7    1
    27    21    17   ar
    28    13    16    1
@<TRIPOS>MOLECULE
*****
 26 28 0 0 0
SMALL
GASTEIGER

@<TRIPOS>ATOM
      1 C         138.7443  140.6173  162.8677 C.ar    1  UNL1        0.0884
      2 C         139.5805  140.3923  164.0925 C.ar    1  UNL1        0.0509
      3 C         140.7770  139.4900  164.0284 C.ar    1  UNL1        0.1360
      4 N         141.1374  138.8127  162.7395 N.ar    1  UNL1       -0.1985
      5 C         140.3012  139.0376  161.5147 C.ar    1  UNL1        0.2239
      6 N         139.1047  139.9399  161.5788 N.ar    1  UNL1       -0.2160
      7 N         141.6132  139.2651  165.2533 N.pl3   1  UNL1       -0.2880
      8 C         141.2216  139.8985  166.5553 C.3     1  UNL1        0.1242
      9 C         142.0578  139.6737  167.7802 C.3     1  UNL1        0.1636
     10 O         143.2855  138.8153  167.7030 O.3     1  UNL1       -0.3501
     11 C         143.6771  138.1819  166.4009 C.3     1  UNL1        0.1636
     12 C         142.8409  138.4068  165.1760 C.3     1  UNL1        0.1242
     13 N         140.6616  138.3602  160.2257 N.am    1  UNL1       -0.2478
     14 C         141.7022  138.9612  159.3280 C.2     1  UNL1        0.2891
     15 O         142.3826  140.2395  159.7193 O.2     1  UNL1       -0.2663
     16 H         140.2150  137.5212  159.9689 H       1  UNL1        0.1581
     17 C         142.0626  138.2838  158.0391 C.ar    1  UNL1        0.2303
     18 C         141.1120  137.5773  157.1187 C.ar    1  UNL1        0.0690
     19 C         141.8986  137.0508  155.9549 C.ar    1  UNL1        0.1440
     20 N         143.3354  137.4321  156.1563 N.ar    1  UNL1       -0.0751
     21 O         143.4367  138.1941  157.4443 O.2     1  UNL1       -0.3487
     22 C         137.5477  141.5196  162.9318 C.3     1  UNL1        0.1964
     23 C         137.9179  144.4904  163.1245 C.3     1  UNL1        0.1765
     24 S         137.7328  143.0050  163.0282 S.O2    1  UNL1       -0.0025
     25 O         137.8722  143.0843  161.5368 O.2     1  UNL1       -0.1726
     26 O         137.5933  142.9256  164.5195 O.2     1  UNL1       -0.1726
@<TRIPOS>BOND
     1    23    24    1
     2    24    25    2
     3    24    26    2
     4    24    22    1
     5    22     1    1
     6     1     2   ar
     7     2     3   ar
     8     3     7    1
     9     7     8    1
    10     8     9    1
    11     9    10    1
    12    10    11    1
    13    11    12    1
    14     3     4   ar
    15     4     5   ar
    16     5    13    1
    17    13    14   am
    18    14    15    2
    19    14    17    1
    20    17    18   ar
    21    18    19   ar
    22    19    20   ar
    23    20    21   ar
    24     5     6   ar
    25     6     1   ar
    26    12     7    1
    27    21    17   ar
    28    13    16    1
