@<TRIPOS>MOLECULE
*****
 23 24 0 0 0
SMALL
GASTEIGER

@<TRIPOS>ATOM
      1 C         142.1353  141.2077  165.9346 C.3     1  UNL1        0.0902
      2 C         141.9517  141.8870  167.2593 C.ar    1  UNL1       -0.0124
      3 C         143.0630  141.8789  168.2667 C.ar    1  UNL1       -0.0036
      4 C         142.8793  142.5582  169.5914 C.ar    1  UNL1       -0.0003
      5 C         141.5844  143.2455  169.9087 C.ar    1  UNL1       -0.0000
      6 C         140.4730  143.2535  168.9013 C.ar    1  UNL1       -0.0003
      7 C         140.6567  142.5743  167.5766 C.ar    1  UNL1       -0.0036
      8 C         142.6548  142.4878  165.3503 C.ar    1  UNL1       -0.0124
      9 C         143.9860  143.0250  165.7855 C.ar    1  UNL1       -0.0036
     10 C         144.5055  144.3052  165.2012 C.ar    1  UNL1       -0.0003
     11 C         143.6939  145.0480  164.1817 C.ar    1  UNL1       -0.0000
     12 C         142.3628  144.5108  163.7464 C.ar    1  UNL1       -0.0003
     13 C         141.8432  143.2307  164.3307 C.ar    1  UNL1       -0.0036
     14 C         141.6157  139.9276  166.5188 C.2     1  UNL1        0.1574
     15 O         142.0805  139.3100  167.4562 O.2     1  UNL1       -0.2954
     16 C         139.0652  139.4416  166.6128 C.3     1  UNL1        0.0082
     17 C         140.3946  139.2790  165.9373 C.3     1  UNL1        0.0652
     18 C         142.3189  140.5285  164.6098 C.3     1  UNL1        0.0311
     19 C         143.6698  140.0108  164.2133 C.3     1  UNL1        0.0587
     20 C         144.4198  139.3330  164.8872 C.3     1  UNL1        0.0174
     21 N         144.2227  140.3215  162.8540 N.3     1  UNL1       -0.2716
     22 C         143.9241  139.4140  161.6976 C.3     1  UNL1        0.0896
     23 C         145.0740  141.5397  162.6511 C.3     1  UNL1        0.0896
@<TRIPOS>BOND
     1    16    17    1
     2    17    14    1
     3    14    15    2
     4    14     1    1
     5     1    18    1
     6    18    19    1
     7    19    20    1
     8    19    21    1
     9    21    22    1
    10    21    23    1
    11     1     2    1
    12     2     3   ar
    13     3     4   ar
    14     4     5   ar
    15     5     6   ar
    16     6     7   ar
    17     1     8    1
    18     8     9   ar
    19     9    10   ar
    20    10    11   ar
    21    11    12   ar
    22    12    13   ar
    23     7     2   ar
    24    13     8   ar
@<TRIPOS>MOLECULE
*****
 23 24 0 0 0
SMALL
GASTEIGER

@<TRIPOS>ATOM
      1 C         141.0900  141.2917  166.1359 C.3     1  UNL1        0.0902
      2 C         140.5323  141.4204  167.5225 C.ar    1  UNL1       -0.0124
      3 C         140.8098  142.6530  168.3311 C.ar    1  UNL1       -0.0036
      4 C         140.2522  142.7816  169.7175 C.ar    1  UNL1       -0.0003
      5 C         139.4170  141.6778  170.2955 C.ar    1  UNL1       -0.0000
      6 C         139.1395  140.4453  169.4869 C.ar    1  UNL1       -0.0003
      7 C         139.6972  140.3166  168.1004 C.ar    1  UNL1       -0.0036
      8 C         139.9840  142.1581  165.6107 C.ar    1  UNL1       -0.0124
      9 C         140.0449  143.6456  165.7943 C.ar    1  UNL1       -0.0036
     10 C         138.9388  144.5120  165.2690 C.ar    1  UNL1       -0.0003
     11 C         137.7719  143.8910  164.5601 C.ar    1  UNL1       -0.0000
     12 C         137.7110  142.4035  164.3765 C.ar    1  UNL1       -0.0003
     13 C         138.8170  141.5371  164.9017 C.ar    1  UNL1       -0.0036
     14 C         142.1961  140.4253  166.6612 C.2     1  UNL1        0.1574
     15 O         143.0645  140.7452  167.4483 O.2     1  UNL1       -0.2954
     16 C         143.6348  138.2996  166.2590 C.3     1  UNL1        0.0082
     17 C         142.3083  138.9982  166.2128 C.3     1  UNL1        0.0652
     18 C         141.6477  141.1630  164.7494 C.3     1  UNL1        0.0311
     19 C         142.9390  141.8387  164.3947 C.3     1  UNL1        0.0587
     20 C         143.2503  142.9897  164.6283 C.3     1  UNL1        0.0174
     21 N         144.0107  141.0767  163.6730 N.3     1  UNL1       -0.2716
     22 C         143.6469  139.9017  162.8146 C.3     1  UNL1        0.0896
     23 C         145.4463  141.4897  163.8099 C.3     1  UNL1        0.0896
@<TRIPOS>BOND
     1    16    17    1
     2    17    14    1
     3    14    15    2
     4    14     1    1
     5     1    18    1
     6    18    19    1
     7    19    20    1
     8    19    21    1
     9    21    22    1
    10    21    23    1
    11     1     2    1
    12     2     3   ar
    13     3     4   ar
    14     4     5   ar
    15     5     6   ar
    16     6     7   ar
    17     1     8    1
    18     8     9   ar
    19     9    10   ar
    20    10    11   ar
    21    11    12   ar
    22    12    13   ar
    23     7     2   ar
    24    13     8   ar
@<TRIPOS>MOLECULE
*****
 23 24 0 0 0
SMALL
GASTEIGER

@<TRIPOS>ATOM
      1 C         141.1026  141.2940  166.1123 C.3     1  UNL1        0.0902
      2 C         140.5438  141.4154  167.4991 C.ar    1  UNL1       -0.0124
      3 C         139.7247  140.3001  168.0779 C.ar    1  UNL1       -0.0036
      4 C         139.1660  140.4215  169.4647 C.ar    1  UNL1       -0.0003
      5 C         139.4264  141.6582  170.2726 C.ar    1  UNL1       -0.0000
      6 C         140.2456  142.7735  169.6938 C.ar    1  UNL1       -0.0003
      7 C         140.8043  142.6521  168.3070 C.ar    1  UNL1       -0.0036
      8 C         139.9949  142.1603  165.5903 C.ar    1  UNL1       -0.0124
      9 C         140.0648  143.6493  165.7578 C.ar    1  UNL1       -0.0036
     10 C         138.9571  144.5156  165.2357 C.ar    1  UNL1       -0.0003
     11 C         137.7795  143.8930  164.5461 C.ar    1  UNL1       -0.0000
     12 C         137.7096  142.4040  164.3786 C.ar    1  UNL1       -0.0003
     13 C         138.8173  141.5377  164.9007 C.ar    1  UNL1       -0.0036
     14 C         142.2102  140.4277  166.6344 C.2     1  UNL1        0.1574
     15 O         143.0830  140.7488  167.4162 O.2     1  UNL1       -0.2954
     16 C         143.6352  138.2856  166.2725 C.3     1  UNL1        0.0082
     17 C         142.3185  138.9993  166.1893 C.3     1  UNL1        0.0652
     18 C         141.6613  141.1727  164.7256 C.3     1  UNL1        0.0311
     19 C         142.9597  141.8392  164.3791 C.3     1  UNL1        0.0587
     20 C         143.2670  142.9957  164.5894 C.3     1  UNL1        0.0174
     21 N         144.0449  141.0590  163.6982 N.3     1  UNL1       -0.2716
     22 C         145.4806  141.4517  163.8843 C.3     1  UNL1        0.0896
     23 C         143.6945  139.8861  162.8313 C.3     1  UNL1        0.0896
@<TRIPOS>BOND
     1    16    17    1
     2    17    14    1
     3    14    15    2
     4    14     1    1
     5     1    18    1
     6    18    19    1
     7    19    20    1
     8    19    21    1
     9    21    22    1
    10    21    23    1
    11     1     2    1
    12     2     3   ar
    13     3     4   ar
    14     4     5   ar
    15     5     6   ar
    16     6     7   ar
    17     1     8    1
    18     8     9   ar
    19     9    10   ar
    20    10    11   ar
    21    11    12   ar
    22    12    13   ar
    23     7     2   ar
    24    13     8   ar
@<TRIPOS>MOLECULE
*****
 23 24 0 0 0
SMALL
GASTEIGER

@<TRIPOS>ATOM
      1 C         141.3378  141.9551  165.9662 C.3     1  UNL1        0.0902
      2 C         140.0719  142.5857  165.4662 C.ar    1  UNL1       -0.0124
      3 C         139.8298  144.0509  165.6774 C.ar    1  UNL1       -0.0036
      4 C         138.5639  144.6815  165.1775 C.ar    1  UNL1       -0.0003
      5 C         137.5403  143.8469  164.4664 C.ar    1  UNL1       -0.0000
      6 C         137.7824  142.3817  164.2553 C.ar    1  UNL1       -0.0003
      7 C         139.0483  141.7512  164.7552 C.ar    1  UNL1       -0.0036
      8 C         140.6327  141.5348  167.2216 C.ar    1  UNL1       -0.0124
      9 C         140.8331  142.3102  168.4898 C.ar    1  UNL1       -0.0036
     10 C         140.1279  141.8900  169.7453 C.ar    1  UNL1       -0.0003
     11 C         139.2222  140.6943  169.7324 C.ar    1  UNL1       -0.0000
     12 C         139.0218  139.9189  168.4641 C.ar    1  UNL1       -0.0003
     13 C         139.7270  140.3391  167.2087 C.ar    1  UNL1       -0.0036
     14 C         142.0430  142.3753  164.7108 C.2     1  UNL1        0.1574
     15 O         141.7501  142.0725  163.5712 O.2     1  UNL1       -0.2954
     16 C         143.2592  144.5785  164.0649 C.3     1  UNL1        0.0082
     17 C         143.2481  143.2651  164.7894 C.3     1  UNL1        0.0652
     18 C         142.6036  141.3244  166.4661 C.3     1  UNL1        0.0311
     19 C         142.8104  139.8452  166.3270 C.3     1  UNL1        0.0587
     20 C         143.0020  139.0463  167.2221 C.3     1  UNL1        0.0174
     21 N         142.7922  139.2099  164.9683 N.3     1  UNL1       -0.2716
     22 C         141.5416  138.5525  164.4645 C.3     1  UNL1        0.0896
     23 C         144.0246  139.2319  164.1135 C.3     1  UNL1        0.0896
@<TRIPOS>BOND
     1    16    17    1
     2    17    14    1
     3    14    15    2
     4    14     1    1
     5     1    18    1
     6    18    19    1
     7    19    20    1
     8    19    21    1
     9    21    22    1
    10    21    23    1
    11     1     2    1
    12     2     3   ar
    13     3     4   ar
    14     4     5   ar
    15     5     6   ar
    16     6     7   ar
    17     1     8    1
    18     8     9   ar
    19     9    10   ar
    20    10    11   ar
    21    11    12   ar
    22    12    13   ar
    23     7     2   ar
    24    13     8   ar
@<TRIPOS>MOLECULE
*****
 23 24 0 0 0
SMALL
GASTEIGER

@<TRIPOS>ATOM
      1 C         141.0579  141.2835  166.1266 C.3     1  UNL1        0.0902
      2 C         140.5317  141.4535  167.5210 C.ar    1  UNL1       -0.0124
      3 C         140.8261  142.7098  168.2858 C.ar    1  UNL1       -0.0036
      4 C         140.2999  142.8798  169.6801 C.ar    1  UNL1       -0.0003
      5 C         139.4792  141.7934  170.3096 C.ar    1  UNL1       -0.0000
      6 C         139.1848  140.5371  169.5449 C.ar    1  UNL1       -0.0003
      7 C         139.7110  140.3671  168.1506 C.ar    1  UNL1       -0.0036
      8 C         139.9503  142.1490  165.6032 C.ar    1  UNL1       -0.0124
      9 C         138.7808  141.5267  164.8996 C.ar    1  UNL1       -0.0036
     10 C         137.6732  142.3923  164.3761 C.ar    1  UNL1       -0.0003
     11 C         137.7351  143.8801  164.5562 C.ar    1  UNL1       -0.0000
     12 C         138.9046  144.5024  165.2597 C.ar    1  UNL1       -0.0003
     13 C         140.0122  143.6369  165.7832 C.ar    1  UNL1       -0.0036
     14 C         142.1656  140.4180  166.6501 C.2     1  UNL1        0.1574
     15 O         143.0475  140.7447  167.4193 O.2     1  UNL1       -0.2954
     16 C         143.5923  138.2912  166.2133 C.3     1  UNL1        0.0082
     17 C         142.2615  138.9831  166.2237 C.3     1  UNL1        0.0652
     18 C         141.5841  141.1136  164.7323 C.3     1  UNL1        0.0311
     19 C         142.8691  141.7747  164.3298 C.3     1  UNL1        0.0587
     20 C         143.1676  142.9432  164.4770 C.3     1  UNL1        0.0174
     21 N         143.9504  140.9723  163.6688 N.3     1  UNL1       -0.2716
     22 C         143.5915  139.8839  162.7011 C.3     1  UNL1        0.0896
     23 C         145.3905  141.2584  163.9754 C.3     1  UNL1        0.0896
@<TRIPOS>BOND
     1    16    17    1
     2    17    14    1
     3    14    15    2
     4    14     1    1
     5     1    18    1
     6    18    19    1
     7    19    20    1
     8    19    21    1
     9    21    22    1
    10    21    23    1
    11     1     2    1
    12     2     3   ar
    13     3     4   ar
    14     4     5   ar
    15     5     6   ar
    16     6     7   ar
    17     1     8    1
    18     8     9   ar
    19     9    10   ar
    20    10    11   ar
    21    11    12   ar
    22    12    13   ar
    23     7     2   ar
    24    13     8   ar
@<TRIPOS>MOLECULE
*****
 23 24 0 0 0
SMALL
GASTEIGER

@<TRIPOS>ATOM
      1 C         141.1711  141.6260  165.7466 C.3     1  UNL1        0.0902
      2 C         141.4477  142.1204  167.1356 C.ar    1  UNL1       -0.0124
      3 C         142.7752  141.8472  167.7784 C.ar    1  UNL1       -0.0036
      4 C         143.0518  142.3416  169.1673 C.ar    1  UNL1       -0.0003
      5 C         142.0009  143.1091  169.9134 C.ar    1  UNL1       -0.0000
      6 C         140.6735  143.3822  169.2706 C.ar    1  UNL1       -0.0003
      7 C         140.3969  142.8879  167.8817 C.ar    1  UNL1       -0.0036
      8 C         141.9491  142.7774  165.1819 C.ar    1  UNL1       -0.0124
      9 C         141.2334  143.8960  164.4843 C.ar    1  UNL1       -0.0036
     10 C         142.0115  145.0474  163.9196 C.ar    1  UNL1       -0.0003
     11 C         143.5052  145.0803  164.0525 C.ar    1  UNL1       -0.0000
     12 C         144.2209  143.9617  164.7501 C.ar    1  UNL1       -0.0003
     13 C         143.4429  142.8103  165.3148 C.ar    1  UNL1       -0.0036
     14 C         140.3931  140.4746  166.3113 C.2     1  UNL1        0.1574
     15 O         140.7891  139.6431  167.1037 O.2     1  UNL1       -0.2954
     16 C         138.2097  139.0700  166.4113 C.3     1  UNL1        0.0082
     17 C         138.9661  140.2607  165.9013 C.3     1  UNL1        0.0652
     18 C         140.8945  141.1317  164.3577 C.3     1  UNL1        0.0311
     19 C         141.9189  140.3059  163.6376 C.3     1  UNL1        0.0587
     20 C         142.4188  140.5414  162.5556 C.3     1  UNL1        0.0174
     21 N         142.4304  139.0387  164.2562 N.3     1  UNL1       -0.2716
     22 C         143.7277  139.0422  165.0091 C.3     1  UNL1        0.0896
     23 C         141.6446  137.7681  164.1218 C.3     1  UNL1        0.0896
@<TRIPOS>BOND
     1    16    17    1
     2    17    14    1
     3    14    15    2
     4    14     1    1
     5     1    18    1
     6    18    19    1
     7    19    20    1
     8    19    21    1
     9    21    22    1
    10    21    23    1
    11     1     2    1
    12     2     3   ar
    13     3     4   ar
    14     4     5   ar
    15     5     6   ar
    16     6     7   ar
    17     1     8    1
    18     8     9   ar
    19     9    10   ar
    20    10    11   ar
    21    11    12   ar
    22    12    13   ar
    23     7     2   ar
    24    13     8   ar
@<TRIPOS>MOLECULE
*****
 23 24 0 0 0
SMALL
GASTEIGER

@<TRIPOS>ATOM
      1 C         141.0259  141.2759  166.1520 C.3     1  UNL1        0.0902
      2 C         140.5143  141.4659  167.5492 C.ar    1  UNL1       -0.0124
      3 C         139.6825  140.3977  168.1951 C.ar    1  UNL1       -0.0036
      4 C         139.1710  140.5877  169.5922 C.ar    1  UNL1       -0.0003
      5 C         139.4912  141.8458  170.3436 C.ar    1  UNL1       -0.0000
      6 C         140.3230  142.9140  169.6978 C.ar    1  UNL1       -0.0003
      7 C         140.8346  142.7240  168.3006 C.ar    1  UNL1       -0.0036
      8 C         139.9279  142.1548  165.6305 C.ar    1  UNL1       -0.0124
      9 C         138.7917  141.5558  164.8559 C.ar    1  UNL1       -0.0036
     10 C         137.6937  142.4349  164.3344 C.ar    1  UNL1       -0.0003
     11 C         137.7320  143.9128  164.5877 C.ar    1  UNL1       -0.0000
     12 C         138.8682  144.5118  165.3623 C.ar    1  UNL1       -0.0003
     13 C         139.9662  143.6329  165.8838 C.ar    1  UNL1       -0.0036
     14 C         142.1238  140.3970  166.6734 C.2     1  UNL1        0.1574
     15 O         142.9619  140.6884  167.5034 O.2     1  UNL1       -0.2954
     16 C         143.5912  138.2942  166.2547 C.3     1  UNL1        0.0082
     17 C         142.2674  138.9937  166.1632 C.3     1  UNL1        0.0652
     18 C         141.5374  141.0860  164.7548 C.3     1  UNL1        0.0311
     19 C         142.3988  142.1384  164.1219 C.3     1  UNL1        0.0587
     20 C         143.3289  142.7280  164.6351 C.3     1  UNL1        0.0174
     21 N         142.1464  142.5621  162.7053 N.3     1  UNL1       -0.2716
     22 C         142.8562  141.8721  161.5784 C.3     1  UNL1        0.0896
     23 C         141.1842  143.6758  162.4156 C.3     1  UNL1        0.0896
@<TRIPOS>BOND
     1    16    17    1
     2    17    14    1
     3    14    15    2
     4    14     1    1
     5     1    18    1
     6    18    19    1
     7    19    20    1
     8    19    21    1
     9    21    22    1
    10    21    23    1
    11     1     2    1
    12     2     3   ar
    13     3     4   ar
    14     4     5   ar
    15     5     6   ar
    16     6     7   ar
    17     1     8    1
    18     8     9   ar
    19     9    10   ar
    20    10    11   ar
    21    11    12   ar
    22    12    13   ar
    23     7     2   ar
    24    13     8   ar
@<TRIPOS>MOLECULE
*****
 23 24 0 0 0
SMALL
GASTEIGER

@<TRIPOS>ATOM
      1 C         141.2922  141.5378  165.4911 C.3     1  UNL1        0.0902
      2 C         140.2630  142.4822  164.9444 C.ar    1  UNL1       -0.0124
      3 C         139.7240  142.2839  163.5588 C.ar    1  UNL1       -0.0036
      4 C         138.6948  143.2283  163.0122 C.ar    1  UNL1       -0.0003
      5 C         138.2046  144.3710  163.8512 C.ar    1  UNL1       -0.0000
      6 C         138.7436  144.5693  165.2369 C.ar    1  UNL1       -0.0003
      7 C         139.7728  143.6249  165.7835 C.ar    1  UNL1       -0.0036
      8 C         140.2010  140.6449  166.0029 C.ar    1  UNL1       -0.0124
      9 C         139.3542  139.8675  165.0392 C.ar    1  UNL1       -0.0036
     10 C         138.2629  138.9746  165.5510 C.ar    1  UNL1       -0.0003
     11 C         138.0185  138.8590  167.0264 C.ar    1  UNL1       -0.0000
     12 C         138.8653  139.6364  167.9901 C.ar    1  UNL1       -0.0003
     13 C         139.9566  140.5293  167.4784 C.ar    1  UNL1       -0.0036
     14 C         142.3834  142.4307  164.9794 C.2     1  UNL1        0.1574
     15 O         142.5166  142.8466  163.8456 O.2     1  UNL1       -0.2954
     16 C         144.6472  143.6463  165.3639 C.3     1  UNL1        0.0082
     17 C         143.4631  142.9032  165.9075 C.3     1  UNL1        0.0652
     18 C         142.3214  140.5934  166.0378 C.3     1  UNL1        0.0311
     19 C         142.7535  139.4055  165.2301 C.3     1  UNL1        0.0587
     20 C         142.6052  138.2340  165.5158 C.3     1  UNL1        0.0174
     21 N         143.4501  139.6049  163.9168 N.3     1  UNL1       -0.2716
     22 C         144.9139  139.9310  163.8861 C.3     1  UNL1        0.0896
     23 C         142.6829  139.4780  162.6341 C.3     1  UNL1        0.0896
@<TRIPOS>BOND
     1    16    17    1
     2    17    14    1
     3    14    15    2
     4    14     1    1
     5     1    18    1
     6    18    19    1
     7    19    20    1
     8    19    21    1
     9    21    22    1
    10    21    23    1
    11     1     2    1
    12     2     3   ar
    13     3     4   ar
    14     4     5   ar
    15     5     6   ar
    16     6     7   ar
    17     1     8    1
    18     8     9   ar
    19     9    10   ar
    20    10    11   ar
    21    11    12   ar
    22    12    13   ar
    23     7     2   ar
    24    13     8   ar
@<TRIPOS>MOLECULE
*****
 23 24 0 0 0
SMALL
GASTEIGER

@<TRIPOS>ATOM
      1 C         141.3069  141.5226  165.7364 C.3     1  UNL1        0.0902
      2 C         140.3664  140.3542  165.7215 C.ar    1  UNL1       -0.0124
      3 C         139.3010  140.2355  166.7707 C.ar    1  UNL1       -0.0036
      4 C         138.3605  139.0671  166.7558 C.ar    1  UNL1       -0.0003
      5 C         138.4854  138.0174  165.6917 C.ar    1  UNL1       -0.0000
      6 C         139.5508  138.1360  164.6424 C.ar    1  UNL1       -0.0003
      7 C         140.4912  139.3044  164.6574 C.ar    1  UNL1       -0.0036
      8 C         140.2425  142.3872  165.1287 C.ar    1  UNL1       -0.0124
      9 C         139.7274  143.5805  165.8774 C.ar    1  UNL1       -0.0036
     10 C         138.6628  144.4451  165.2695 C.ar    1  UNL1       -0.0003
     11 C         138.1135  144.1163  163.9131 C.ar    1  UNL1       -0.0000
     12 C         138.6286  142.9229  163.1644 C.ar    1  UNL1       -0.0003
     13 C         139.6930  142.0584  163.7721 C.ar    1  UNL1       -0.0036
     14 C         142.3714  140.6581  166.3442 C.2     1  UNL1        0.1574
     15 O         143.0801  139.8569  165.7680 O.2     1  UNL1       -0.2954
     16 C         142.4930  139.5132  168.6733 C.3     1  UNL1        0.0082
     17 C         142.6497  140.7342  167.8162 C.3     1  UNL1        0.0652
     18 C         142.2474  142.6910  165.7513 C.3     1  UNL1        0.0311
     19 C         142.8795  143.1614  164.4748 C.3     1  UNL1        0.0587
     20 C         142.7795  144.2629  163.9719 C.3     1  UNL1        0.0174
     21 N         143.7418  142.2289  163.6768 N.3     1  UNL1       -0.2716
     22 C         143.1496  141.4447  162.5436 C.3     1  UNL1        0.0896
     23 C         145.1963  142.0806  164.0121 C.3     1  UNL1        0.0896
@<TRIPOS>BOND
     1    16    17    1
     2    17    14    1
     3    14    15    2
     4    14     1    1
     5     1    18    1
     6    18    19    1
     7    19    20    1
     8    19    21    1
     9    21    22    1
    10    21    23    1
    11     1     2    1
    12     2     3   ar
    13     3     4   ar
    14     4     5   ar
    15     5     6   ar
    16     6     7   ar
    17     1     8    1
    18     8     9   ar
    19     9    10   ar
    20    10    11   ar
    21    11    12   ar
    22    12    13   ar
    23     7     2   ar
    24    13     8   ar
