@<TRIPOS>MOLECULE
*****
 35 37 0 0 0
SMALL
GASTEIGER

@<TRIPOS>ATOM
      1 C         143.5162  142.1232  164.3218 C.3     1  UNL1        0.0690
      2 C         144.6833  141.1821  164.3682 C.3     1  UNL1        0.0485
      3 C         145.6781  141.1650  163.2457 C.3     1  UNL1        0.1436
      4 O         145.5057  142.0890  162.0767 O.3     1  UNL1       -0.3537
      5 C         144.3386  143.0301  162.0302 C.3     1  UNL1        0.1436
      6 C         143.3438  143.0472  163.1528 C.3     1  UNL1        0.0485
      7 N         143.2512  141.4441  165.6328 N.3     1  UNL1       -0.2710
      8 C         143.0957  139.9532  165.6872 C.3     1  UNL1        0.0896
      9 C         142.8307  139.2742  166.9982 C.3     1  UNL1        0.0897
     10 N         142.7212  140.0861  168.2547 N.3     1  UNL1       -0.2682
     11 C         142.8767  141.5770  168.2003 C.3     1  UNL1        0.0897
     12 C         143.1417  142.2560  166.8893 C.3     1  UNL1        0.0896
     13 C         142.4562  139.4070  169.5657 C.3     1  UNL1        0.1046
     14 C         142.7909  140.1026  170.8518 C.3     1  UNL1        0.1594
     15 O         141.6960  140.6799  171.6993 O.3     1  UNL1       -0.3523
     16 C         141.2277  142.0853  171.4644 C.3     1  UNL1        0.1421
     17 C         140.2784  142.3817  170.3414 C.3     1  UNL1        0.0297
     18 C         139.3068  141.3341  169.8844 C.3     1  UNL1        0.0026
     19 C         140.3006  143.7255  169.6754 C.3     1  UNL1        0.0026
     20 C         142.2570  142.8285  164.7306 C.3     1  UNL1        0.1143
     21 C         140.1344  143.6479  163.4766 C.2     1  UNL1        0.2304
     22 O         140.5922  145.0682  163.6298 O.2     1  UNL1       -0.2745
     23 N         140.9668  142.5281  164.0270 N.am    1  UNL1       -0.2425
     24 C         140.5090  141.1079  163.8738 C.ar    1  UNL1        0.1373
     25 C         140.9098  140.3172  162.6638 C.ar    1  UNL1        0.0347
     26 C         140.4520  138.8969  162.5106 C.ar    1  UNL1        0.0044
     27 C         139.5935  138.2676  163.5674 C.ar    1  UNL1        0.0232
     28 C         139.1928  139.0583  164.7773 C.ar    1  UNL1        0.1540
     29 N         139.6505  140.4785  164.9306 N.ar    1  UNL1       -0.2263
     30 C         138.3342  138.4289  165.8342 C.3     1  UNL1        0.4349
     31 F         137.4757  137.7995  166.8910 F       1  UNL1       -0.1644
     32 F         137.8566  139.7871  166.2550 F       1  UNL1       -0.1644
     33 F         138.8119  137.0707  165.4133 F       1  UNL1       -0.1644
     34 C         137.6099  144.1343  163.1014 C.3     1  UNL1        0.0101
     35 C         138.8442  143.3477  162.7729 C.3     1  UNL1        0.0857
@<TRIPOS>BOND
     1    34    35    1
     2    35    21    1
     3    21    22    2
     4    21    23   am
     5    23    20    1
     6    20     1    1
     7     1     7    1
     8     7     8    1
     9     8     9    1
    10     9    10    1
    11    10    13    1
    12    13    14    1
    13    14    15    1
    14    15    16    1
    15    16    17    1
    16    17    18    1
    17    17    19    1
    18    10    11    1
    19    11    12    1
    20     1     2    1
    21     2     3    1
    22     3     4    1
    23     4     5    1
    24     5     6    1
    25    23    24    1
    26    24    25   ar
    27    25    26   ar
    28    26    27   ar
    29    27    28   ar
    30    28    30    1
    31    30    31    1
    32    30    32    1
    33    30    33    1
    34    28    29   ar
    35     6     1    1
    36    29    24   ar
    37    12     7    1
@<TRIPOS>MOLECULE
*****
 35 37 0 0 0
SMALL
GASTEIGER

@<TRIPOS>ATOM
      1 C         141.9984  139.0624  164.4178 C.3     1  UNL1        0.0690
      2 C         140.8350  138.1198  164.3287 C.3     1  UNL1        0.0485
      3 C         140.6703  137.2437  163.1223 C.3     1  UNL1        0.1436
      4 O         141.6691  137.3102  162.0051 O.3     1  UNL1       -0.3537
      5 C         142.8325  138.2528  162.0943 C.3     1  UNL1        0.1436
      6 C         142.9971  139.1289  163.3006 C.3     1  UNL1        0.0485
      7 N         141.3221  139.3591  165.7235 N.3     1  UNL1       -0.2710
      8 C         142.1322  139.4596  166.9819 C.3     1  UNL1        0.0896
      9 C         141.4559  139.7562  168.2875 C.3     1  UNL1        0.0897
     10 N         139.9695  139.9523  168.3347 N.3     1  UNL1       -0.2682
     11 C         139.1594  139.8518  167.0763 C.3     1  UNL1        0.0897
     12 C         139.8357  139.5551  165.7707 C.3     1  UNL1        0.0896
     13 C         139.2933  140.2490  169.6404 C.3     1  UNL1        0.1046
     14 C         140.0360  140.0596  170.9297 C.3     1  UNL1        0.1594
     15 O         140.5517  141.2516  171.6803 O.3     1  UNL1       -0.3523
     16 C         141.9270  141.7789  171.3968 C.3     1  UNL1        0.1421
     17 C         142.1707  142.6232  170.1812 C.3     1  UNL1        0.0297
     18 C         141.0850  143.5168  169.6587 C.3     1  UNL1        0.0026
     19 C         143.5000  142.5740  169.4880 C.3     1  UNL1        0.0026
     20 C         142.9269  140.1081  164.9605 C.3     1  UNL1        0.1143
     21 C         144.0832  142.2357  164.0193 C.2     1  UNL1        0.2304
     22 O         145.4110  141.5402  164.0783 O.2     1  UNL1       -0.2745
     23 N         142.8412  141.5196  164.4604 N.am    1  UNL1       -0.2425
     24 C         141.5135  142.2151  164.4013 C.ar    1  UNL1        0.1373
     25 C         141.0053  142.9639  165.5975 C.ar    1  UNL1        0.0347
     26 C         139.6775  143.6594  165.5385 C.ar    1  UNL1        0.0044
     27 C         138.8581  143.6060  164.2832 C.ar    1  UNL1        0.0232
     28 C         139.3664  142.8572  163.0871 C.ar    1  UNL1        0.1540
     29 N         140.6941  142.1617  163.1460 N.ar    1  UNL1       -0.2263
     30 C         138.5469  142.8038  161.8317 C.3     1  UNL1        0.4349
     31 F         137.7275  142.7504  160.5765 F       1  UNL1       -0.1644
     32 F         137.3741  142.2991  162.6189 F       1  UNL1       -0.1644
     33 F         139.7198  143.3086  161.0446 F       1  UNL1       -0.1644
     34 C         143.9911  144.7887  164.4922 C.3     1  UNL1        0.0101
     35 C         143.9976  143.6473  163.5191 C.3     1  UNL1        0.0857
@<TRIPOS>BOND
     1    34    35    1
     2    35    21    1
     3    21    22    2
     4    21    23   am
     5    23    20    1
     6    20     1    1
     7     1     7    1
     8     7     8    1
     9     8     9    1
    10     9    10    1
    11    10    13    1
    12    13    14    1
    13    14    15    1
    14    15    16    1
    15    16    17    1
    16    17    18    1
    17    17    19    1
    18    10    11    1
    19    11    12    1
    20     1     2    1
    21     2     3    1
    22     3     4    1
    23     4     5    1
    24     5     6    1
    25    23    24    1
    26    24    25   ar
    27    25    26   ar
    28    26    27   ar
    29    27    28   ar
    30    28    30    1
    31    30    31    1
    32    30    32    1
    33    30    33    1
    34    28    29   ar
    35     6     1    1
    36    29    24   ar
    37    12     7    1
@<TRIPOS>MOLECULE
*****
 35 37 0 0 0
SMALL
GASTEIGER

@<TRIPOS>ATOM
      1 C         142.0640  139.1849  164.3001 C.3     1  UNL1        0.0690
      2 C         141.0304  138.0983  164.2725 C.3     1  UNL1        0.0485
      3 C         140.9584  137.1612  163.1034 C.3     1  UNL1        0.1436
      4 O         141.9201  137.3108  161.9620 O.3     1  UNL1       -0.3537
      5 C         142.9537  138.3974  161.9896 C.3     1  UNL1        0.1436
      6 C         143.0257  139.3345  163.1587 C.3     1  UNL1        0.0485
      7 N         141.3787  139.4440  165.6091 N.3     1  UNL1       -0.2710
      8 C         139.8847  139.5673  165.6619 C.3     1  UNL1        0.0896
      9 C         139.1995  139.8264  166.9708 C.3     1  UNL1        0.0897
     10 N         140.0081  139.9621  168.2269 N.3     1  UNL1       -0.2682
     11 C         141.5021  139.8387  168.1740 C.3     1  UNL1        0.0897
     12 C         142.1874  139.5796  166.8651 C.3     1  UNL1        0.0896
     13 C         139.3228  140.2212  169.5358 C.3     1  UNL1        0.1046
     14 C         140.0066  139.8679  170.8232 C.3     1  UNL1        0.1594
     15 O         140.6863  140.9351  171.6290 O.3     1  UNL1       -0.3523
     16 C         140.4774  142.3806  171.2869 C.3     1  UNL1        0.1421
     17 C         141.2295  142.9972  170.1450 C.3     1  UNL1        0.0297
     18 C         140.4818  143.5979  168.9916 C.3     1  UNL1        0.0026
     19 C         142.7294  143.0132  170.1563 C.3     1  UNL1        0.0026
     20 C         142.8597  140.3615  164.7824 C.3     1  UNL1        0.1143
     21 C         143.9930  142.4939  163.8241 C.2     1  UNL1        0.2304
     22 O         145.3282  141.9938  164.2904 O.2     1  UNL1       -0.2745
     23 N         142.7588  141.6778  164.0702 N.am    1  UNL1       -0.2425
     24 C         141.4237  142.1779  163.6039 C.ar    1  UNL1        0.1373
     25 C         140.9428  141.8539  162.2205 C.ar    1  UNL1        0.0347
     26 C         139.6077  142.3540  161.7543 C.ar    1  UNL1        0.0044
     27 C         138.7535  143.1781  162.6715 C.ar    1  UNL1        0.0232
     28 C         139.2344  143.5021  164.0548 C.ar    1  UNL1        0.1540
     29 N         140.5695  143.0020  164.5211 N.ar    1  UNL1       -0.2263
     30 C         138.3802  144.3262  164.9721 C.3     1  UNL1        0.4349
     31 F         137.5260  145.1503  165.8892 F       1  UNL1       -0.1644
     32 F         139.5082  145.2990  165.1485 F       1  UNL1       -0.1644
     33 F         137.2522  143.3533  164.7956 F       1  UNL1       -0.1644
     34 C         143.5732  145.0572  163.8820 C.3     1  UNL1        0.0101
     35 C         143.8923  143.8102  163.1119 C.3     1  UNL1        0.0857
@<TRIPOS>BOND
     1    34    35    1
     2    35    21    1
     3    21    22    2
     4    21    23   am
     5    23    20    1
     6    20     1    1
     7     1     7    1
     8     7     8    1
     9     8     9    1
    10     9    10    1
    11    10    13    1
    12    13    14    1
    13    14    15    1
    14    15    16    1
    15    16    17    1
    16    17    18    1
    17    17    19    1
    18    10    11    1
    19    11    12    1
    20     1     2    1
    21     2     3    1
    22     3     4    1
    23     4     5    1
    24     5     6    1
    25    23    24    1
    26    24    25   ar
    27    25    26   ar
    28    26    27   ar
    29    27    28   ar
    30    28    30    1
    31    30    31    1
    32    30    32    1
    33    30    33    1
    34    28    29   ar
    35     6     1    1
    36    29    24   ar
    37    12     7    1
@<TRIPOS>MOLECULE
*****
 35 37 0 0 0
SMALL
GASTEIGER

@<TRIPOS>ATOM
      1 C         140.0647  143.8058  164.1369 C.3     1  UNL1        0.0690
      2 C         138.5845  143.5833  164.0408 C.3     1  UNL1        0.0485
      3 C         137.7806  144.3200  163.0108 C.3     1  UNL1        0.1436
      4 O         138.4571  145.2793  162.0768 O.3     1  UNL1       -0.3537
      5 C         139.9373  145.5017  162.1729 C.3     1  UNL1        0.1436
      6 C         140.7412  144.7650  163.2029 C.3     1  UNL1        0.0485
      7 N         139.8801  142.8028  165.2370 N.3     1  UNL1       -0.2710
      8 C         140.4968  143.0438  166.5829 C.3     1  UNL1        0.0896
      9 C         140.3122  142.0409  167.6829 C.3     1  UNL1        0.0897
     10 N         139.5109  140.7969  167.4369 N.3     1  UNL1       -0.2682
     11 C         138.8943  140.5559  166.0910 C.3     1  UNL1        0.0897
     12 C         139.0789  141.5588  164.9910 C.3     1  UNL1        0.0896
     13 C         139.3263  139.7939  168.5369 C.3     1  UNL1        0.1046
     14 C         138.9524  140.2527  169.9152 C.3     1  UNL1        0.1594
     15 O         139.9101  140.0641  171.0542 O.3     1  UNL1       -0.3523
     16 C         141.1657  140.8819  171.1215 C.3     1  UNL1        0.1421
     17 C         142.3822  140.4528  170.3561 C.3     1  UNL1        0.0297
     18 C         143.3735  141.4765  169.8878 C.3     1  UNL1        0.0026
     19 C         142.6074  138.9998  170.0589 C.3     1  UNL1        0.0026
     20 C         141.4809  143.6799  164.6150 C.3     1  UNL1        0.1143
     21 C         143.8953  143.3614  163.7100 C.2     1  UNL1        0.2304
     22 O         144.3215  144.6214  164.4035 O.2     1  UNL1       -0.2745
     23 N         142.4750  142.8907  163.8158 N.am    1  UNL1       -0.2425
     24 C         142.0489  141.6307  163.1223 C.ar    1  UNL1        0.1373
     25 C         141.7270  141.6530  161.6574 C.ar    1  UNL1        0.0347
     26 C         141.3008  140.3930  160.9640 C.ar    1  UNL1        0.0044
     27 C         141.1966  139.1109  161.7354 C.ar    1  UNL1        0.0232
     28 C         141.5186  139.0886  163.2002 C.ar    1  UNL1        0.1540
     29 N         141.9447  140.3485  163.8937 N.ar    1  UNL1       -0.2263
     30 C         141.4144  137.8063  163.9717 C.3     1  UNL1        0.4349
     31 F         141.3102  136.5242  164.7431 F       1  UNL1       -0.1644
     32 F         141.3113  137.0411  162.6857 F       1  UNL1       -0.1644
     33 F         141.5175  138.5717  165.2576 F       1  UNL1       -0.1644
     34 C         145.7884  141.5857  163.5953 C.3     1  UNL1        0.0101
     35 C         144.8895  142.5723  162.9107 C.3     1  UNL1        0.0857
@<TRIPOS>BOND
     1    34    35    1
     2    35    21    1
     3    21    22    2
     4    21    23   am
     5    23    20    1
     6    20     1    1
     7     1     7    1
     8     7     8    1
     9     8     9    1
    10     9    10    1
    11    10    13    1
    12    13    14    1
    13    14    15    1
    14    15    16    1
    15    16    17    1
    16    17    18    1
    17    17    19    1
    18    10    11    1
    19    11    12    1
    20     1     2    1
    21     2     3    1
    22     3     4    1
    23     4     5    1
    24     5     6    1
    25    23    24    1
    26    24    25   ar
    27    25    26   ar
    28    26    27   ar
    29    27    28   ar
    30    28    30    1
    31    30    31    1
    32    30    32    1
    33    30    33    1
    34    28    29   ar
    35     6     1    1
    36    29    24   ar
    37    12     7    1
@<TRIPOS>MOLECULE
*****
 35 37 0 0 0
SMALL
GASTEIGER

@<TRIPOS>ATOM
      1 C         143.6725  140.1644  163.8486 C.3     1  UNL1        0.0690
      2 C         144.7083  141.0587  164.4627 C.3     1  UNL1        0.0485
      3 C         145.6089  141.8762  163.5848 C.3     1  UNL1        0.1436
      4 O         145.4736  141.7993  162.0929 O.3     1  UNL1       -0.3537
      5 C         144.4377  140.9050  161.4788 C.3     1  UNL1        0.1436
      6 C         143.5371  140.0875  162.3567 C.3     1  UNL1        0.0485
      7 N         143.4172  139.8985  165.3027 N.3     1  UNL1       -0.2710
      8 C         143.5546  138.5072  165.8462 C.3     1  UNL1        0.0896
      9 C         143.2993  138.2415  167.3002 C.3     1  UNL1        0.0897
     10 N         142.9068  139.3670  168.2107 N.3     1  UNL1       -0.2682
     11 C         142.7694  140.7583  167.6673 C.3     1  UNL1        0.0897
     12 C         143.0246  141.0240  166.2133 C.3     1  UNL1        0.0896
     13 C         142.6515  139.1011  169.6648 C.3     1  UNL1        0.1046
     14 C         142.9786  140.1486  170.6874 C.3     1  UNL1        0.1594
     15 O         141.8800  140.7888  171.4832 O.3     1  UNL1       -0.3523
     16 C         141.3161  142.1111  171.0546 C.3     1  UNL1        0.1421
     17 C         140.3519  142.1789  169.9077 C.3     1  UNL1        0.0297
     18 C         139.4502  141.0160  169.6161 C.3     1  UNL1        0.0026
     19 C         140.2892  143.4094  169.0522 C.3     1  UNL1        0.0026
     20 C         142.5479  139.1777  163.7396 C.3     1  UNL1        0.1143
     21 C         140.4275  138.8466  162.2752 C.2     1  UNL1        0.2304
     22 O         141.0252  137.6008  161.6914 O.2     1  UNL1       -0.2745
     23 N         141.1889  139.6350  163.2993 N.am    1  UNL1       -0.2425
     24 C         140.5912  140.8809  163.8831 C.ar    1  UNL1        0.1373
     25 C         139.7653  140.8020  165.1327 C.ar    1  UNL1        0.0347
     26 C         139.1676  142.0478  165.7165 C.ar    1  UNL1        0.0044
     27 C         139.3959  143.3724  165.0506 C.ar    1  UNL1        0.0232
     28 C         140.2217  143.4511  163.8009 C.ar    1  UNL1        0.1540
     29 N         140.8194  142.2054  163.2171 N.ar    1  UNL1       -0.2263
     30 C         140.4500  144.7758  163.1350 C.3     1  UNL1        0.4349
     31 F         140.6782  146.1003  162.4690 F       1  UNL1       -0.1644
     32 F         141.5752  145.0596  164.0854 F       1  UNL1       -0.1644
     33 F         139.3247  144.4919  162.1846 F       1  UNL1       -0.1644
     34 C         137.9187  138.3407  161.8279 C.3     1  UNL1        0.0101
     35 C         139.0685  139.3039  161.8349 C.3     1  UNL1        0.0857
@<TRIPOS>BOND
     1    34    35    1
     2    35    21    1
     3    21    22    2
     4    21    23   am
     5    23    20    1
     6    20     1    1
     7     1     7    1
     8     7     8    1
     9     8     9    1
    10     9    10    1
    11    10    13    1
    12    13    14    1
    13    14    15    1
    14    15    16    1
    15    16    17    1
    16    17    18    1
    17    17    19    1
    18    10    11    1
    19    11    12    1
    20     1     2    1
    21     2     3    1
    22     3     4    1
    23     4     5    1
    24     5     6    1
    25    23    24    1
    26    24    25   ar
    27    25    26   ar
    28    26    27   ar
    29    27    28   ar
    30    28    30    1
    31    30    31    1
    32    30    32    1
    33    30    33    1
    34    28    29   ar
    35     6     1    1
    36    29    24   ar
    37    12     7    1
@<TRIPOS>MOLECULE
*****
 35 37 0 0 0
SMALL
GASTEIGER

@<TRIPOS>ATOM
      1 C         139.6719  141.6542  166.3889 C.3     1  UNL1        0.0690
      2 C         140.3700  142.7555  167.1302 C.3     1  UNL1        0.0485
      3 C         140.7971  142.5485  168.5532 C.3     1  UNL1        0.1436
      4 O         140.5259  141.2401  169.2348 O.3     1  UNL1       -0.3537
      5 C         139.8278  140.1387  168.4935 C.3     1  UNL1        0.1436
      6 C         139.4007  140.3457  167.0706 C.3     1  UNL1        0.0485
      7 N         139.7044  142.7071  165.3210 N.3     1  UNL1       -0.2710
      8 C         138.4772  142.9855  164.5046 C.3     1  UNL1        0.0896
      9 C         138.5098  144.0383  163.4367 C.3     1  UNL1        0.0897
     10 N         139.7696  144.8128  163.1853 N.3     1  UNL1       -0.2682
     11 C         140.9967  144.5344  164.0017 C.3     1  UNL1        0.0897
     12 C         140.9641  143.4816  165.0695 C.3     1  UNL1        0.0896
     13 C         139.8021  145.8657  162.1173 C.3     1  UNL1        0.1046
     14 C         140.3424  145.5378  160.7570 C.3     1  UNL1        0.1594
     15 O         141.7820  145.1483  160.5957 O.3     1  UNL1       -0.3523
     16 C         142.1825  143.7052  160.6798 C.3     1  UNL1        0.1421
     17 C         143.4993  143.3268  161.2904 C.3     1  UNL1        0.0297
     18 C         144.0842  144.1630  162.3898 C.3     1  UNL1        0.0026
     19 C         144.2312  142.1121  160.8016 C.3     1  UNL1        0.0026
     20 C         138.9850  140.9184  165.2767 C.3     1  UNL1        0.1143
     21 C         139.1684  139.5704  163.0634 C.2     1  UNL1        0.2304
     22 O         137.7572  139.9445  162.7186 O.2     1  UNL1       -0.2745
     23 N         139.7822  140.0574  164.3424 N.am    1  UNL1       -0.2425
     24 C         141.1934  139.6834  164.6871 C.ar    1  UNL1        0.1373
     25 C         141.4773  138.3812  165.3753 C.ar    1  UNL1        0.0347
     26 C         142.8884  138.0071  165.7200 C.ar    1  UNL1        0.0044
     27 C         144.0156  138.9353  165.3765 C.ar    1  UNL1        0.0232
     28 C         143.7316  140.2375  164.6884 C.ar    1  UNL1        0.1540
     29 N         142.3205  140.6116  164.3436 N.ar    1  UNL1       -0.2263
     30 C         144.8588  141.1657  164.3449 C.3     1  UNL1        0.4349
     31 F         145.9860  142.0939  164.0014 F       1  UNL1       -0.1644
     32 F         145.4916  140.0894  163.5135 F       1  UNL1       -0.1644
     33 F         144.2259  142.2419  165.1762 F       1  UNL1       -0.1644
     34 C         139.3360  138.1819  160.8738 C.3     1  UNL1        0.0101
     35 C         139.9656  138.7094  162.1290 C.3     1  UNL1        0.0857
@<TRIPOS>BOND
     1    34    35    1
     2    35    21    1
     3    21    22    2
     4    21    23   am
     5    23    20    1
     6    20     1    1
     7     1     7    1
     8     7     8    1
     9     8     9    1
    10     9    10    1
    11    10    13    1
    12    13    14    1
    13    14    15    1
    14    15    16    1
    15    16    17    1
    16    17    18    1
    17    17    19    1
    18    10    11    1
    19    11    12    1
    20     1     2    1
    21     2     3    1
    22     3     4    1
    23     4     5    1
    24     5     6    1
    25    23    24    1
    26    24    25   ar
    27    25    26   ar
    28    26    27   ar
    29    27    28   ar
    30    28    30    1
    31    30    31    1
    32    30    32    1
    33    30    33    1
    34    28    29   ar
    35     6     1    1
    36    29    24   ar
    37    12     7    1
@<TRIPOS>MOLECULE
*****
 35 37 0 0 0
SMALL
GASTEIGER

@<TRIPOS>ATOM
      1 C         143.4285  141.8790  163.7420 C.3     1  UNL1        0.0690
      2 C         143.1891  143.1712  164.4649 C.3     1  UNL1        0.0485
      3 C         143.5790  144.4713  163.8264 C.3     1  UNL1        0.1436
      4 O         144.2083  144.4791  162.4647 O.3     1  UNL1       -0.3537
      5 C         144.4478  143.1869  161.7418 C.3     1  UNL1        0.1436
      6 C         144.0579  141.8868  162.3804 C.3     1  UNL1        0.0485
      7 N         142.8075  141.3597  165.0048 N.3     1  UNL1       -0.2710
      8 C         141.6226  142.0602  165.6010 C.3     1  UNL1        0.0896
      9 C         141.0016  141.5409  166.8637 C.3     1  UNL1        0.0897
     10 N         141.5654  140.3212  167.5303 N.3     1  UNL1       -0.2682
     11 C         142.7502  139.6207  166.9342 C.3     1  UNL1        0.0897
     12 C         143.3713  140.1400  165.6714 C.3     1  UNL1        0.0896
     13 C         140.9443  139.8019  168.7932 C.3     1  UNL1        0.1046
     14 C         139.5902  140.2877  169.2178 C.3     1  UNL1        0.1594
     15 O         139.4454  141.1117  170.4629 O.3     1  UNL1       -0.3523
     16 C         140.6452  141.7850  171.0604 C.3     1  UNL1        0.1421
     17 C         141.2960  142.9313  170.3446 C.3     1  UNL1        0.0297
     18 C         142.7833  142.9471  170.1502 C.3     1  UNL1        0.0026
     19 C         140.4595  144.0619  169.8231 C.3     1  UNL1        0.0026
     20 C         143.4523  140.4064  163.4575 C.3     1  UNL1        0.1143
     21 C         142.7037  139.0044  161.4023 C.2     1  UNL1        0.2304
     22 O         144.1365  138.8489  160.9865 O.2     1  UNL1       -0.2745
     23 N         142.3616  139.7832  162.6379 N.am    1  UNL1       -0.2425
     24 C         140.9288  139.9387  163.0537 C.ar    1  UNL1        0.1373
     25 C         140.0658  140.9755  162.3977 C.ar    1  UNL1        0.0347
     26 C         138.6330  141.1310  162.8135 C.ar    1  UNL1        0.0044
     27 C         138.0632  140.2497  163.8852 C.ar    1  UNL1        0.0232
     28 C         138.9262  139.2129  164.5411 C.ar    1  UNL1        0.1540
     29 N         140.3590  139.0574  164.1254 N.ar    1  UNL1       -0.2263
     30 C         138.3564  138.3316  165.6130 C.3     1  UNL1        0.4349
     31 F         137.7866  137.4502  166.6847 F       1  UNL1       -0.1644
     32 F         137.6315  139.5085  166.1953 F       1  UNL1       -0.1644
     33 F         139.0813  137.1546  165.0305 F       1  UNL1       -0.1644
     34 C         141.4488  138.7600  159.1405 C.3     1  UNL1        0.0101
     35 C         141.6130  138.3811  160.5826 C.3     1  UNL1        0.0857
@<TRIPOS>BOND
     1    34    35    1
     2    35    21    1
     3    21    22    2
     4    21    23   am
     5    23    20    1
     6    20     1    1
     7     1     7    1
     8     7     8    1
     9     8     9    1
    10     9    10    1
    11    10    13    1
    12    13    14    1
    13    14    15    1
    14    15    16    1
    15    16    17    1
    16    17    18    1
    17    17    19    1
    18    10    11    1
    19    11    12    1
    20     1     2    1
    21     2     3    1
    22     3     4    1
    23     4     5    1
    24     5     6    1
    25    23    24    1
    26    24    25   ar
    27    25    26   ar
    28    26    27   ar
    29    27    28   ar
    30    28    30    1
    31    30    31    1
    32    30    32    1
    33    30    33    1
    34    28    29   ar
    35     6     1    1
    36    29    24   ar
    37    12     7    1
@<TRIPOS>MOLECULE
*****
 35 37 0 0 0
SMALL
GASTEIGER

@<TRIPOS>ATOM
      1 C         141.5161  141.7067  167.4287 C.3     1  UNL1        0.0690
      2 C         142.4721  140.6640  167.9272 C.3     1  UNL1        0.0485
      3 C         142.2303  139.9948  169.2478 C.3     1  UNL1        0.1436
      4 O         141.0325  140.3684  170.0697 O.3     1  UNL1       -0.3537
      5 C         140.0764  141.4111  169.5711 C.3     1  UNL1        0.1436
      6 C         140.3182  142.0803  168.2506 C.3     1  UNL1        0.0485
      7 N         142.5007  141.6937  166.2971 N.3     1  UNL1       -0.2710
      8 C         142.9437  142.9840  165.6735 C.3     1  UNL1        0.0896
      9 C         143.9282  142.9709  164.5420 C.3     1  UNL1        0.0897
     10 N         144.4697  141.6676  164.0339 N.3     1  UNL1       -0.2682
     11 C         144.0267  140.3773  164.6575 C.3     1  UNL1        0.0897
     12 C         143.0421  140.3903  165.7890 C.3     1  UNL1        0.0896
     13 C         145.4543  141.6546  162.9023 C.3     1  UNL1        0.1046
     14 C         145.0619  142.1982  161.5605 C.3     1  UNL1        0.1594
     15 O         144.0542  141.4697  160.7216 O.3     1  UNL1       -0.3523
     16 C         144.0722  139.9710  160.6603 C.3     1  UNL1        0.1421
     17 C         142.8475  139.1904  161.0355 C.3     1  UNL1        0.0297
     18 C         142.9534  138.0472  162.0010 C.3     1  UNL1        0.0026
     19 C         141.5170  139.5528  160.4453 C.3     1  UNL1        0.0026
     20 C         140.9019  142.7450  166.5371 C.3     1  UNL1        0.1143
     21 C         138.8253  143.4578  165.1481 C.2     1  UNL1        0.2304
     22 O         139.0650  144.8899  165.5248 O.2     1  UNL1       -0.2745
     23 N         139.7438  142.3854  165.6543 N.am    1  UNL1       -0.2425
     24 C         139.5041  140.9533  165.2777 C.ar    1  UNL1        0.1373
     25 C         140.0358  140.4200  163.9805 C.ar    1  UNL1        0.0347
     26 C         139.7961  138.9879  163.6039 C.ar    1  UNL1        0.0044
     27 C         139.0246  138.0894  164.5244 C.ar    1  UNL1        0.0232
     28 C         138.4929  138.6228  165.8216 C.ar    1  UNL1        0.1540
     29 N         138.7326  140.0548  166.1983 N.ar    1  UNL1       -0.2263
     30 C         137.7215  137.7242  166.7422 C.3     1  UNL1        0.4349
     31 F         136.9500  136.8256  167.6628 F       1  UNL1       -0.1644
     32 F         137.3482  138.9078  167.5846 F       1  UNL1       -0.1644
     33 F         138.0948  136.5406  165.8998 F       1  UNL1       -0.1644
     34 C         137.7633  143.3008  162.7822 C.3     1  UNL1        0.0101
     35 C         137.6671  143.0984  164.2653 C.3     1  UNL1        0.0857
@<TRIPOS>BOND
     1    34    35    1
     2    35    21    1
     3    21    22    2
     4    21    23   am
     5    23    20    1
     6    20     1    1
     7     1     7    1
     8     7     8    1
     9     8     9    1
    10     9    10    1
    11    10    13    1
    12    13    14    1
    13    14    15    1
    14    15    16    1
    15    16    17    1
    16    17    18    1
    17    17    19    1
    18    10    11    1
    19    11    12    1
    20     1     2    1
    21     2     3    1
    22     3     4    1
    23     4     5    1
    24     5     6    1
    25    23    24    1
    26    24    25   ar
    27    25    26   ar
    28    26    27   ar
    29    27    28   ar
    30    28    30    1
    31    30    31    1
    32    30    32    1
    33    30    33    1
    34    28    29   ar
    35     6     1    1
    36    29    24   ar
    37    12     7    1
@<TRIPOS>MOLECULE
*****
 35 37 0 0 0
SMALL
GASTEIGER

@<TRIPOS>ATOM
      1 C         141.3873  143.0114  165.2521 C.3     1  UNL1        0.0690
      2 C         140.0794  143.2417  165.9494 C.3     1  UNL1        0.0485
      3 C         139.0324  144.1070  165.3131 C.3     1  UNL1        0.1436
      4 O         139.2933  144.7421  163.9794 O.3     1  UNL1       -0.3537
      5 C         140.6012  144.5119  163.2821 C.3     1  UNL1        0.1436
      6 C         141.6482  143.6465  163.9184 C.3     1  UNL1        0.0485
      7 N         141.6072  142.1983  166.4933 N.3     1  UNL1       -0.2710
      8 C         142.8704  142.3645  167.2848 C.3     1  UNL1        0.0896
      9 C         143.0903  141.5513  168.5259 C.3     1  UNL1        0.0897
     10 N         142.0468  140.5720  168.9755 N.3     1  UNL1       -0.2682
     11 C         140.7836  140.4058  168.1840 C.3     1  UNL1        0.0897
     12 C         140.5638  141.2189  166.9429 C.3     1  UNL1        0.0896
     13 C         142.2667  139.7588  170.2167 C.3     1  UNL1        0.1046
     14 C         142.7210  138.3334  170.1088 C.3     1  UNL1        0.1594
     15 O         143.9068  137.8624  170.8975 O.3     1  UNL1       -0.3523
     16 C         144.1547  136.3936  171.0740 C.3     1  UNL1        0.1421
     17 C         145.3452  135.9225  171.8555 C.3     1  UNL1        0.0297
     18 C         145.3001  134.6038  172.5689 C.3     1  UNL1        0.0026
     19 C         146.5809  136.7702  171.9237 C.3     1  UNL1        0.0026
     20 C         142.7716  142.4987  164.9858 C.3     1  UNL1        0.1143
     21 C         144.0053  141.5847  162.8900 C.2     1  UNL1        0.2304
     22 O         144.8084  142.8492  162.8112 O.2     1  UNL1       -0.2745
     23 N         142.9869  141.4095  163.9773 N.am    1  UNL1       -0.2425
     24 C         142.1839  140.1450  164.0560 C.ar    1  UNL1        0.1373
     25 C         142.6777  138.9931  164.8802 C.ar    1  UNL1        0.0347
     26 C         141.8746  137.7286  164.9589 C.ar    1  UNL1        0.0044
     27 C         140.5778  137.6161  164.2135 C.ar    1  UNL1        0.0232
     28 C         140.0841  138.7680  163.3894 C.ar    1  UNL1        0.1540
     29 N         140.8871  140.0325  163.3106 N.ar    1  UNL1       -0.2263
     30 C         138.7872  138.6555  162.6440 C.3     1  UNL1        0.4349
     31 F         137.4904  138.5430  161.8986 F       1  UNL1       -0.1644
     32 F         139.0706  139.9572  161.9547 F       1  UNL1       -0.1644
     33 F         138.5039  137.3538  163.3334 F       1  UNL1       -0.1644
     34 C         143.5161  140.5484  160.5582 C.3     1  UNL1        0.0101
     35 C         144.2207  140.4955  161.8814 C.3     1  UNL1        0.0857
@<TRIPOS>BOND
     1    34    35    1
     2    35    21    1
     3    21    22    2
     4    21    23   am
     5    23    20    1
     6    20     1    1
     7     1     7    1
     8     7     8    1
     9     8     9    1
    10     9    10    1
    11    10    13    1
    12    13    14    1
    13    14    15    1
    14    15    16    1
    15    16    17    1
    16    17    18    1
    17    17    19    1
    18    10    11    1
    19    11    12    1
    20     1     2    1
    21     2     3    1
    22     3     4    1
    23     4     5    1
    24     5     6    1
    25    23    24    1
    26    24    25   ar
    27    25    26   ar
    28    26    27   ar
    29    27    28   ar
    30    28    30    1
    31    30    31    1
    32    30    32    1
    33    30    33    1
    34    28    29   ar
    35     6     1    1
    36    29    24   ar
    37    12     7    1
