@<TRIPOS>MOLECULE
*****
 30 34 0 0 0
SMALL
GASTEIGER

@<TRIPOS>ATOM
      1 C         137.2391  141.0539  156.7265 C.3     1  UNL1        0.0181
      2 C         138.0165  142.2389  157.2179 C.3     1  UNL1        0.0036
      3 C         138.8113  143.2602  157.9764 C.3     1  UNL1        0.0227
      4 C         139.0566  142.7256  159.3562 C.3     1  UNL1        0.0870
      5 C         138.4135  141.3737  159.4506 C.3     1  UNL1        0.0227
      6 C         137.7707  141.0730  158.1291 C.3     1  UNL1        0.0036
      7 N         139.8123  143.4206  160.4497 N.ar    1  UNL1       -0.3109
      8 C         141.2328  143.8969  160.3747 C.ar    1  UNL1        0.1785
      9 N         141.5786  144.5320  161.6889 N.ar    1  UNL1       -0.2239
     10 C         140.3719  144.4484  162.5760 C.ar    1  UNL1        0.1010
     11 C         140.1261  144.9089  163.9822 C.ar    1  UNL1        0.0502
     12 C         138.7887  144.6826  164.6225 C.ar    1  UNL1        0.1417
     13 F         138.5429  145.1431  166.0288 F       1  UNL1       -0.2041
     14 C         137.6971  143.9957  163.8566 C.ar    1  UNL1        0.0312
     15 C         137.9429  143.5351  162.4504 C.ar    1  UNL1        0.0211
     16 C         139.2803  143.7615  161.8101 C.ar    1  UNL1        0.0790
     17 C         136.4834  140.3589  155.6331 C.3     1  UNL1        0.0718
     18 N         135.0354  140.6759  155.4035 N.am    1  UNL1       -0.3025
     19 C         134.0036  140.2318  156.3975 C.2     1  UNL1        0.2458
     20 O         134.4198  139.4707  157.6212 O.2     1  UNL1       -0.2701
     21 H         134.7622  141.1754  154.6003 H       1  UNL1        0.1497
     22 C         132.5555  140.5489  156.1679 C.ar    1  UNL1        0.0534
     23 C         132.1688  141.6410  155.2153 C.ar    1  UNL1        0.0054
     24 C         130.7208  141.9581  154.9857 C.ar    1  UNL1        0.0115
     25 C         129.6595  141.1829  155.7087 C.ar    1  UNL1        0.0577
     26 CL        128.2115  141.5000  155.4790 Cl      1  UNL1       -0.0822
     27 C         130.0462  140.0907  156.6613 C.ar    1  UNL1        0.0115
     28 C         131.4942  139.7736  156.8909 C.ar    1  UNL1        0.0054
     29 C         136.3736  138.3145  154.0335 C.3     1  UNL1        0.0017
     30 C         137.1756  139.3467  154.7691 C.3     1  UNL1        0.0196
@<TRIPOS>BOND
     1    29    30    1
     2    30    17    1
     3    17    18    1
     4    18    19   am
     5    19    20    2
     6    19    22    1
     7    22    23   ar
     8    23    24   ar
     9    24    25   ar
    10    25    26    1
    11    25    27   ar
    12    27    28   ar
    13     1    17    1
    14     1     2    1
    15     2     3    1
    16     3     4    1
    17     4     7    1
    18     7     8   ar
    19     8     9   ar
    20     9    10   ar
    21    10    11   ar
    22    11    12   ar
    23    12    13    1
    24    12    14   ar
    25    14    15   ar
    26    15    16   ar
    27     4     5    1
    28     6     5    1
    29    28    22   ar
    30     6     1    1
    31     6     2    1
    32    16     7   ar
    33    16    10   ar
    34    18    21    1
@<TRIPOS>MOLECULE
*****
 30 34 0 0 0
SMALL
GASTEIGER

@<TRIPOS>ATOM
      1 C         142.2030  137.4097  157.4572 C.3     1  UNL1        0.0181
      2 C         141.5987  136.5036  156.4258 C.3     1  UNL1        0.0036
      3 C         141.2763  135.4596  155.3980 C.3     1  UNL1        0.0227
      4 C         142.4975  134.6115  155.1997 C.3     1  UNL1        0.0870
      5 C         143.5747  135.1312  156.1049 C.3     1  UNL1        0.0227
      6 C         143.0193  136.3005  156.8627 C.3     1  UNL1        0.0036
      7 N         142.6200  133.4480  154.2610 N.ar    1  UNL1       -0.3109
      8 C         141.9874  133.3384  152.9053 C.ar    1  UNL1        0.1785
      9 N         142.3730  132.0125  152.3197 N.ar    1  UNL1       -0.2239
     10 C         143.2440  131.3025  153.3134 C.ar    1  UNL1        0.1010
     11 C         143.9178  129.9628  153.2807 C.ar    1  UNL1        0.0502
     12 C         144.7443  129.5103  154.4478 C.ar    1  UNL1        0.1417
     13 F         145.4181  128.1705  154.4152 F       1  UNL1       -0.2041
     14 C         144.8969  130.3975  155.6476 C.ar    1  UNL1        0.0312
     15 C         144.2230  131.7372  155.6803 C.ar    1  UNL1        0.0211
     16 C         143.3966  132.1897  154.5132 C.ar    1  UNL1        0.0790
     17 C         142.0805  138.5732  158.3959 C.3     1  UNL1        0.0718
     18 N         141.2294  138.4583  159.6257 N.am    1  UNL1       -0.3025
     19 C         141.8330  137.9819  160.9136 C.2     1  UNL1        0.2458
     20 O         143.2876  137.6204  160.9717 O.2     1  UNL1       -0.2701
     21 H         140.2747  138.6956  159.5876 H       1  UNL1        0.1497
     22 C         140.9819  137.8670  162.1435 C.ar    1  UNL1        0.0534
     23 C         141.6182  137.5857  163.4723 C.ar    1  UNL1        0.0054
     24 C         140.7672  137.4708  164.7022 C.ar    1  UNL1        0.0115
     25 C         139.2798  137.6373  164.6031 C.ar    1  UNL1        0.0577
     26 CL        138.4287  137.5225  165.8330 Cl      1  UNL1       -0.0822
     27 C         138.6434  137.9187  163.2743 C.ar    1  UNL1        0.0115
     28 C         139.4944  138.0336  162.0445 C.ar    1  UNL1        0.0054
     29 C         143.6447  139.9732  156.8652 C.3     1  UNL1        0.0017
     30 C         142.8091  139.8517  158.1048 C.3     1  UNL1        0.0196
@<TRIPOS>BOND
     1    29    30    1
     2    30    17    1
     3    17    18    1
     4    18    19   am
     5    19    20    2
     6    19    22    1
     7    22    23   ar
     8    23    24   ar
     9    24    25   ar
    10    25    26    1
    11    25    27   ar
    12    27    28   ar
    13     1    17    1
    14     1     2    1
    15     2     3    1
    16     3     4    1
    17     4     7    1
    18     7     8   ar
    19     8     9   ar
    20     9    10   ar
    21    10    11   ar
    22    11    12   ar
    23    12    13    1
    24    12    14   ar
    25    14    15   ar
    26    15    16   ar
    27     4     5    1
    28     6     5    1
    29    28    22   ar
    30     6     1    1
    31     6     2    1
    32    16     7   ar
    33    16    10   ar
    34    18    21    1
@<TRIPOS>MOLECULE
*****
 30 34 0 0 0
SMALL
GASTEIGER

@<TRIPOS>ATOM
      1 C         140.7792  137.9989  157.4273 C.3     1  UNL1        0.0181
      2 C         141.0019  138.3377  158.8716 C.3     1  UNL1        0.0036
      3 C         140.9452  138.8171  160.2918 C.3     1  UNL1        0.0227
      4 C         139.6562  139.5609  160.4790 C.3     1  UNL1        0.0870
      5 C         138.9160  139.5411  159.1744 C.3     1  UNL1        0.0227
      6 C         139.7477  138.7852  158.1810 C.3     1  UNL1        0.0036
      7 N         139.1892  140.2104  161.7479 N.ar    1  UNL1       -0.3109
      8 C         138.8753  141.6659  161.9296 C.ar    1  UNL1        0.1785
      9 N         138.4463  141.8734  163.3518 N.ar    1  UNL1       -0.2239
     10 C         138.4949  140.5462  164.0491 C.ar    1  UNL1        0.1010
     11 C         138.1805  140.1408  165.4586 C.ar    1  UNL1        0.0502
     12 C         138.3252  138.7076  165.8767 C.ar    1  UNL1        0.1417
     13 F         138.0107  138.3021  167.2863 F       1  UNL1       -0.2041
     14 C         138.7843  137.6797  164.8854 C.ar    1  UNL1        0.0312
     15 C         139.0988  138.0851  163.4759 C.ar    1  UNL1        0.0211
     16 C         138.9541  139.5184  163.0578 C.ar    1  UNL1        0.0790
     17 C         141.2461  137.3495  156.1585 C.3     1  UNL1        0.0718
     18 N         141.1370  135.8627  155.9928 N.am    1  UNL1       -0.3025
     19 C         142.3436  134.9949  156.1956 C.2     1  UNL1        0.2458
     20 O         143.6593  135.6140  156.5641 O.2     1  UNL1       -0.2701
     21 H         140.2735  135.4563  155.7509 H       1  UNL1        0.1497
     22 C         142.2346  133.5080  156.0298 C.ar    1  UNL1        0.0534
     23 C         141.2761  132.9332  155.0295 C.ar    1  UNL1        0.0054
     24 C         141.1670  131.4464  154.8637 C.ar    1  UNL1        0.0115
     25 C         142.0165  130.5344  155.6984 C.ar    1  UNL1        0.0577
     26 CL        141.9074  129.0476  155.5327 Cl      1  UNL1       -0.0822
     27 C         142.9750  131.1092  156.6988 C.ar    1  UNL1        0.0115
     28 C         143.0841  132.5960  156.8646 C.ar    1  UNL1        0.0054
     29 C         142.9628  139.1187  155.3383 C.3     1  UNL1        0.0017
     30 C         141.8221  138.1868  155.0552 C.3     1  UNL1        0.0196
@<TRIPOS>BOND
     1    29    30    1
     2    30    17    1
     3    17    18    1
     4    18    19   am
     5    19    20    2
     6    19    22    1
     7    22    23   ar
     8    23    24   ar
     9    24    25   ar
    10    25    26    1
    11    25    27   ar
    12    27    28   ar
    13     1    17    1
    14     1     2    1
    15     2     3    1
    16     3     4    1
    17     4     7    1
    18     7     8   ar
    19     8     9   ar
    20     9    10   ar
    21    10    11   ar
    22    11    12   ar
    23    12    13    1
    24    12    14   ar
    25    14    15   ar
    26    15    16   ar
    27     4     5    1
    28     6     5    1
    29    28    22   ar
    30     6     1    1
    31     6     2    1
    32    16     7   ar
    33    16    10   ar
    34    18    21    1
@<TRIPOS>MOLECULE
*****
 30 34 0 0 0
SMALL
GASTEIGER

@<TRIPOS>ATOM
      1 C         142.2295  137.6617  157.9648 C.3     1  UNL1        0.0181
      2 C         142.1858  138.1433  159.3847 C.3     1  UNL1        0.0036
      3 C         141.8560  138.7275  160.7264 C.3     1  UNL1        0.0227
      4 C         140.4796  139.3185  160.6492 C.3     1  UNL1        0.0870
      5 C         139.9585  139.0997  159.2597 C.3     1  UNL1        0.0227
      6 C         141.0129  138.3734  158.4783 C.3     1  UNL1        0.0036
      7 N         139.7520  140.0074  161.7654 N.ar    1  UNL1       -0.3109
      8 C         139.3181  141.4432  161.7812 C.ar    1  UNL1        0.1785
      9 N         138.6284  141.7046  163.0873 N.ar    1  UNL1       -0.2239
     10 C         138.6360  140.4304  163.8788 C.ar    1  UNL1        0.1010
     11 C         138.1004  140.0898  165.2378 C.ar    1  UNL1        0.0502
     12 C         138.2591  138.7002  165.7798 C.ar    1  UNL1        0.1417
     13 F         137.7234  138.3595  167.1389 F       1  UNL1       -0.2041
     14 C         138.9535  137.6512  164.9627 C.ar    1  UNL1        0.0312
     15 C         139.4892  137.9919  163.6037 C.ar    1  UNL1        0.0211
     16 C         139.3304  139.3815  163.0617 C.ar    1  UNL1        0.0790
     17 C         142.9571  136.9728  156.8486 C.3     1  UNL1        0.0718
     18 N         143.4836  135.5818  157.0425 N.am    1  UNL1       -0.3025
     19 C         142.7365  134.4112  156.4756 C.2     1  UNL1        0.2458
     20 O         141.4627  134.6316  155.7147 O.2     1  UNL1       -0.2701
     21 H         144.3196  135.4371  157.5419 H       1  UNL1        0.1497
     22 C         143.2631  133.0200  156.6695 C.ar    1  UNL1        0.0534
     23 C         144.4661  132.7873  157.5345 C.ar    1  UNL1        0.0054
     24 C         144.9927  131.3963  157.7285 C.ar    1  UNL1        0.0115
     25 C         144.3162  130.2379  157.0573 C.ar    1  UNL1        0.0577
     26 CL        144.8428  128.8468  157.2513 Cl      1  UNL1       -0.0822
     27 C         143.1131  130.4706  156.1922 C.ar    1  UNL1        0.0115
     28 C         142.5865  131.8616  155.9983 C.ar    1  UNL1        0.0054
     29 C         144.3457  138.5698  155.3415 C.3     1  UNL1        0.0017
     30 C         143.1582  137.6750  155.5384 C.3     1  UNL1        0.0196
@<TRIPOS>BOND
     1    29    30    1
     2    30    17    1
     3    17    18    1
     4    18    19   am
     5    19    20    2
     6    19    22    1
     7    22    23   ar
     8    23    24   ar
     9    24    25   ar
    10    25    26    1
    11    25    27   ar
    12    27    28   ar
    13     1    17    1
    14     1     2    1
    15     2     3    1
    16     3     4    1
    17     4     7    1
    18     7     8   ar
    19     8     9   ar
    20     9    10   ar
    21    10    11   ar
    22    11    12   ar
    23    12    13    1
    24    12    14   ar
    25    14    15   ar
    26    15    16   ar
    27     4     5    1
    28     6     5    1
    29    28    22   ar
    30     6     1    1
    31     6     2    1
    32    16     7   ar
    33    16    10   ar
    34    18    21    1
@<TRIPOS>MOLECULE
*****
 30 34 0 0 0
SMALL
GASTEIGER

@<TRIPOS>ATOM
      1 C         141.8371  138.2383  157.9603 C.3     1  UNL1        0.0181
      2 C         141.3236  137.3712  156.8492 C.3     1  UNL1        0.0036
      3 C         141.0695  136.3364  155.7934 C.3     1  UNL1        0.0227
      4 C         142.2017  135.3532  155.8257 C.3     1  UNL1        0.0870
      5 C         143.1558  135.7803  156.9015 C.3     1  UNL1        0.0227
      6 C         142.6132  137.0274  157.5340 C.3     1  UNL1        0.0036
      7 N         142.3534  134.1535  154.9382 N.ar    1  UNL1       -0.3109
      8 C         141.6591  133.9335  153.6269 C.ar    1  UNL1        0.1785
      9 N         142.1027  132.6073  153.0844 N.ar    1  UNL1       -0.2239
     10 C         143.0710  132.0076  154.0605 C.ar    1  UNL1        0.1010
     11 C         143.8317  130.7148  154.0540 C.ar    1  UNL1        0.0502
     12 C         144.7473  130.3777  155.1932 C.ar    1  UNL1        0.1417
     13 F         145.5080  129.0848  155.1868 F       1  UNL1       -0.2041
     14 C         144.9023  131.3334  156.3390 C.ar    1  UNL1        0.0312
     15 C         144.1416  132.6261  156.3454 C.ar    1  UNL1        0.0211
     16 C         143.2260  132.9632  155.2062 C.ar    1  UNL1        0.0790
     17 C         141.6855  139.4379  158.8478 C.3     1  UNL1        0.0718
     18 N         141.7665  139.2837  160.3377 N.am    1  UNL1       -0.3025
     19 C         143.0922  139.0383  160.9953 C.2     1  UNL1        0.2458
     20 O         144.3368  138.9472  160.1631 O.2     1  UNL1       -0.2701
     21 H         140.9496  139.3435  160.8839 H       1  UNL1        0.1497
     22 C         143.1732  138.8841  162.4852 C.ar    1  UNL1        0.0534
     23 C         144.3391  139.4556  163.2361 C.ar    1  UNL1        0.0054
     24 C         144.4201  139.3014  164.7259 C.ar    1  UNL1        0.0115
     25 C         143.3352  138.5757  165.4649 C.ar    1  UNL1        0.0577
     26 CL        143.4162  138.4214  166.9547 Cl      1  UNL1       -0.0822
     27 C         142.1691  138.0041  164.7140 C.ar    1  UNL1        0.0115
     28 C         142.0881  138.1583  163.2242 C.ar    1  UNL1        0.0054
     29 C         142.5431  141.8216  158.2712 C.3     1  UNL1        0.0017
     30 C         141.4528  140.7919  158.2456 C.3     1  UNL1        0.0196
@<TRIPOS>BOND
     1    29    30    1
     2    30    17    1
     3    17    18    1
     4    18    19   am
     5    19    20    2
     6    19    22    1
     7    22    23   ar
     8    23    24   ar
     9    24    25   ar
    10    25    26    1
    11    25    27   ar
    12    27    28   ar
    13     1    17    1
    14     1     2    1
    15     2     3    1
    16     3     4    1
    17     4     7    1
    18     7     8   ar
    19     8     9   ar
    20     9    10   ar
    21    10    11   ar
    22    11    12   ar
    23    12    13    1
    24    12    14   ar
    25    14    15   ar
    26    15    16   ar
    27     4     5    1
    28     6     5    1
    29    28    22   ar
    30     6     1    1
    31     6     2    1
    32    16     7   ar
    33    16    10   ar
    34    18    21    1
@<TRIPOS>MOLECULE
*****
 30 34 0 0 0
SMALL
GASTEIGER

@<TRIPOS>ATOM
      1 C         138.7272  139.9913  164.0129 C.3     1  UNL1        0.0181
      2 C         137.9911  140.0811  162.7090 C.3     1  UNL1        0.0036
      3 C         137.5095  140.3277  161.3099 C.3     1  UNL1        0.0227
      4 C         138.5724  141.0965  160.5825 C.3     1  UNL1        0.0870
      5 C         139.7110  141.3251  161.5319 C.3     1  UNL1        0.0227
      6 C         139.3517  140.6975  162.8461 C.3     1  UNL1        0.0036
      7 N         138.5080  141.5561  159.1561 N.ar    1  UNL1       -0.3109
      8 C         137.8529  140.8240  158.0226 C.ar    1  UNL1        0.1785
      9 N         138.0275  141.6439  156.7788 N.ar    1  UNL1       -0.2239
     10 C         138.7906  142.8827  157.1435 C.ar    1  UNL1        0.1010
     11 C         139.2534  144.0531  156.3275 C.ar    1  UNL1        0.0502
     12 C         140.0132  145.1693  156.9808 C.ar    1  UNL1        0.1417
     13 F         140.4761  146.3398  156.1649 F       1  UNL1       -0.2041
     14 C         140.3102  145.1150  158.4501 C.ar    1  UNL1        0.0312
     15 C         139.8474  143.9446  159.2661 C.ar    1  UNL1        0.0211
     16 C         139.0876  142.8284  158.6128 C.ar    1  UNL1        0.0790
     17 C         138.7916  139.5318  165.4393 C.3     1  UNL1        0.0718
     18 N         139.3851  140.4242  166.4887 N.am    1  UNL1       -0.3025
     19 C         140.8075  140.2281  166.9229 C.2     1  UNL1        0.2458
     20 O         141.6362  139.1397  166.3077 O.2     1  UNL1       -0.2701
     21 H         138.8412  141.1385  166.8925 H       1  UNL1        0.1497
     22 C         141.4011  141.1206  167.9724 C.ar    1  UNL1        0.0534
     23 C         142.8064  140.8918  168.4440 C.ar    1  UNL1        0.0054
     24 C         143.4000  141.7841  169.4935 C.ar    1  UNL1        0.0115
     25 C         142.5882  142.9053  170.0712 C.ar    1  UNL1        0.0577
     26 CL        143.1818  143.7977  171.1207 Cl      1  UNL1       -0.0822
     27 C         141.1828  143.1342  169.5996 C.ar    1  UNL1        0.0115
     28 C         140.5892  142.2418  168.5502 C.ar    1  UNL1        0.0054
     29 C         137.4686  138.0102  167.0777 C.3     1  UNL1        0.0017
     30 C         138.2623  138.1798  165.8163 C.3     1  UNL1        0.0196
@<TRIPOS>BOND
     1    29    30    1
     2    30    17    1
     3    17    18    1
     4    18    19   am
     5    19    20    2
     6    19    22    1
     7    22    23   ar
     8    23    24   ar
     9    24    25   ar
    10    25    26    1
    11    25    27   ar
    12    27    28   ar
    13     1    17    1
    14     1     2    1
    15     2     3    1
    16     3     4    1
    17     4     7    1
    18     7     8   ar
    19     8     9   ar
    20     9    10   ar
    21    10    11   ar
    22    11    12   ar
    23    12    13    1
    24    12    14   ar
    25    14    15   ar
    26    15    16   ar
    27     4     5    1
    28     6     5    1
    29    28    22   ar
    30     6     1    1
    31     6     2    1
    32    16     7   ar
    33    16    10   ar
    34    18    21    1
@<TRIPOS>MOLECULE
*****
 30 34 0 0 0
SMALL
GASTEIGER

@<TRIPOS>ATOM
      1 C         141.9674  138.4057  159.2739 C.3     1  UNL1        0.0181
      2 C         141.8867  138.1574  160.7510 C.3     1  UNL1        0.0036
      3 C         141.5733  138.1193  162.2174 C.3     1  UNL1        0.0227
      4 C         140.4436  139.0718  162.4750 C.3     1  UNL1        0.0870
      5 C         140.0587  139.6987  161.1678 C.3     1  UNL1        0.0227
      6 C         140.9506  139.1336  160.1023 C.3     1  UNL1        0.0036
      7 N         139.8100  139.3488  163.8061 N.ar    1  UNL1       -0.3109
      8 C         138.3451  139.5464  164.0612 C.ar    1  UNL1        0.1785
      9 N         138.1598  139.7966  165.5286 N.ar    1  UNL1       -0.2239
     10 C         139.5101  139.7536  166.1803 C.ar    1  UNL1        0.1010
     11 C         139.9428  139.9307  167.6056 C.ar    1  UNL1        0.0502
     12 C         141.3953  139.8311  167.9663 C.ar    1  UNL1        0.1417
     13 F         141.8281  140.0082  169.3916 F       1  UNL1       -0.2041
     14 C         142.4152  139.5543  166.9017 C.ar    1  UNL1        0.0312
     15 C         141.9826  139.3772  165.4765 C.ar    1  UNL1        0.0211
     16 C         140.5300  139.4769  165.1158 C.ar    1  UNL1        0.0790
     17 C         142.6010  138.1287  157.9428 C.3     1  UNL1        0.0718
     18 N         143.2041  136.7838  157.6646 N.am    1  UNL1       -0.3025
     19 C         142.4883  135.8102  156.7759 C.2     1  UNL1        0.2458
     20 O         141.1695  136.1815  156.1654 O.2     1  UNL1       -0.2701
     21 H         144.0697  136.5401  158.0653 H       1  UNL1        0.1497
     22 C         143.0915  134.4652  156.4977 C.ar    1  UNL1        0.0534
     23 C         143.9760  133.8140  157.5192 C.ar    1  UNL1        0.0054
     24 C         144.5791  132.4691  157.2410 C.ar    1  UNL1        0.0115
     25 C         144.2978  131.7754  155.9412 C.ar    1  UNL1        0.0577
     26 CL        144.9009  130.4305  155.6630 Cl      1  UNL1       -0.0822
     27 C         143.4133  132.4265  154.9196 C.ar    1  UNL1        0.0115
     28 C         142.8102  133.7714  155.1978 C.ar    1  UNL1        0.0054
     29 C         143.0613  140.5889  157.2459 C.3     1  UNL1        0.0017
     30 C         142.6315  139.1966  156.8899 C.3     1  UNL1        0.0196
@<TRIPOS>BOND
     1    29    30    1
     2    30    17    1
     3    17    18    1
     4    18    19   am
     5    19    20    2
     6    19    22    1
     7    22    23   ar
     8    23    24   ar
     9    24    25   ar
    10    25    26    1
    11    25    27   ar
    12    27    28   ar
    13     1    17    1
    14     1     2    1
    15     2     3    1
    16     3     4    1
    17     4     7    1
    18     7     8   ar
    19     8     9   ar
    20     9    10   ar
    21    10    11   ar
    22    11    12   ar
    23    12    13    1
    24    12    14   ar
    25    14    15   ar
    26    15    16   ar
    27     4     5    1
    28     6     5    1
    29    28    22   ar
    30     6     1    1
    31     6     2    1
    32    16     7   ar
    33    16    10   ar
    34    18    21    1
@<TRIPOS>MOLECULE
*****
 30 34 0 0 0
SMALL
GASTEIGER

@<TRIPOS>ATOM
      1 C         138.1500  142.6789  157.0726 C.3     1  UNL1        0.0181
      2 C         138.5008  142.5338  158.5239 C.3     1  UNL1        0.0036
      3 C         139.0694  142.6050  159.9101 C.3     1  UNL1        0.0227
      4 C         140.1838  143.6089  159.9032 C.3     1  UNL1        0.0870
      5 C         140.3041  144.1582  158.5126 C.3     1  UNL1        0.0227
      6 C         139.2640  143.4938  157.6601 C.3     1  UNL1        0.0036
      7 N         141.0295  143.9956  161.0801 N.ar    1  UNL1       -0.3109
      8 C         140.7432  145.1090  162.0437 C.ar    1  UNL1        0.1785
      9 N         141.8468  145.1383  163.0592 N.ar    1  UNL1       -0.2239
     10 C         142.8151  144.0431  162.7233 C.ar    1  UNL1        0.1010
     11 C         144.0915  143.5976  163.3731 C.ar    1  UNL1        0.0502
     12 C         144.8628  142.4460  162.7998 C.ar    1  UNL1        0.1417
     13 F         146.1393  142.0005  163.4496 F       1  UNL1       -0.2041
     14 C         144.3577  141.7397  161.5766 C.ar    1  UNL1        0.0312
     15 C         143.0813  142.1852  160.9268 C.ar    1  UNL1        0.0211
     16 C         142.3100  143.3368  161.5001 C.ar    1  UNL1        0.0790
     17 C         137.3044  142.2922  155.8957 C.3     1  UNL1        0.0718
     18 N         135.8353  142.0484  156.0756 N.am    1  UNL1       -0.3025
     19 C         135.2879  140.6558  155.9714 C.2     1  UNL1        0.2458
     20 O         136.2095  139.5069  155.6873 O.2     1  UNL1       -0.2701
     21 H         135.2303  142.8024  156.2620 H       1  UNL1        0.1497
     22 C         133.8187  140.4119  156.1512 C.ar    1  UNL1        0.0534
     23 C         132.8225  141.3676  155.5645 C.ar    1  UNL1        0.0054
     24 C         131.3535  141.1238  155.7444 C.ar    1  UNL1        0.0115
     25 C         130.8806  139.9243  156.5108 C.ar    1  UNL1        0.0577
     26 CL        129.4115  139.6805  156.6907 Cl      1  UNL1       -0.0822
     27 C         131.8768  138.9686  157.0975 C.ar    1  UNL1        0.0115
     28 C         133.3458  139.2124  156.9177 C.ar    1  UNL1        0.0054
     29 C         139.1626  141.3159  154.3648 C.3     1  UNL1        0.0017
     30 C         137.9277  142.1493  154.5388 C.3     1  UNL1        0.0196
@<TRIPOS>BOND
     1    29    30    1
     2    30    17    1
     3    17    18    1
     4    18    19   am
     5    19    20    2
     6    19    22    1
     7    22    23   ar
     8    23    24   ar
     9    24    25   ar
    10    25    26    1
    11    25    27   ar
    12    27    28   ar
    13     1    17    1
    14     1     2    1
    15     2     3    1
    16     3     4    1
    17     4     7    1
    18     7     8   ar
    19     8     9   ar
    20     9    10   ar
    21    10    11   ar
    22    11    12   ar
    23    12    13    1
    24    12    14   ar
    25    14    15   ar
    26    15    16   ar
    27     4     5    1
    28     6     5    1
    29    28    22   ar
    30     6     1    1
    31     6     2    1
    32    16     7   ar
    33    16    10   ar
    34    18    21    1
@<TRIPOS>MOLECULE
*****
 30 34 0 0 0
SMALL
GASTEIGER

@<TRIPOS>ATOM
      1 C         143.4981  139.8311  160.6853 C.3     1  UNL1        0.0181
      2 C         144.1577  139.7878  162.0319 C.3     1  UNL1        0.0036
      3 C         144.5262  139.6913  163.4828 C.3     1  UNL1        0.0227
      4 C         143.2726  139.4278  164.2630 C.3     1  UNL1        0.0870
      5 C         142.1292  139.3615  163.2944 C.3     1  UNL1        0.0227
      6 C         142.6762  139.5839  161.9156 C.3     1  UNL1        0.0036
      7 N         143.1788  139.2602  165.7507 N.ar    1  UNL1       -0.3109
      8 C         143.7572  138.1294  166.5487 C.ar    1  UNL1        0.1785
      9 N         143.4259  138.3642  167.9927 N.ar    1  UNL1       -0.2239
     10 C         142.6428  139.6401  168.0871 C.ar    1  UNL1        0.1010
     11 C         142.0491  140.3692  169.2558 C.ar    1  UNL1        0.0502
     12 C         141.3027  141.6521  169.0388 C.ar    1  UNL1        0.1417
     13 F         140.7089  142.3812  170.2075 F       1  UNL1       -0.2041
     14 C         141.1499  142.2058  167.6531 C.ar    1  UNL1        0.0312
     15 C         141.7436  141.4767  166.4844 C.ar    1  UNL1        0.0211
     16 C         142.4901  140.1938  166.7014 C.ar    1  UNL1        0.0790
     17 C         143.5919  139.9988  159.1978 C.3     1  UNL1        0.0718
     18 N         143.4682  138.8042  158.2991 N.am    1  UNL1       -0.3025
     19 C         142.1137  138.2500  157.9705 C.2     1  UNL1        0.2458
     20 O         140.8828  138.8903  158.5406 O.2     1  UNL1       -0.2701
     21 H         144.2761  138.3839  157.9249 H       1  UNL1        0.1497
     22 C         141.9899  137.0553  157.0717 C.ar    1  UNL1        0.0534
     23 C         142.9618  135.9196  157.1957 C.ar    1  UNL1        0.0054
     24 C         142.8382  134.7251  156.2970 C.ar    1  UNL1        0.0115
     25 C         141.7425  134.6662  155.2743 C.ar    1  UNL1        0.0577
     26 CL        141.6188  133.4716  154.3756 Cl      1  UNL1       -0.0822
     27 C         140.7705  135.8020  155.1502 C.ar    1  UNL1        0.0115
     28 C         140.8942  136.9965  156.0489 C.ar    1  UNL1        0.0054
     29 C         144.4631  142.4358  159.4258 C.3     1  UNL1        0.0017
     30 C         143.8095  141.3611  158.6087 C.3     1  UNL1        0.0196
@<TRIPOS>BOND
     1    29    30    1
     2    30    17    1
     3    17    18    1
     4    18    19   am
     5    19    20    2
     6    19    22    1
     7    22    23   ar
     8    23    24   ar
     9    24    25   ar
    10    25    26    1
    11    25    27   ar
    12    27    28   ar
    13     1    17    1
    14     1     2    1
    15     2     3    1
    16     3     4    1
    17     4     7    1
    18     7     8   ar
    19     8     9   ar
    20     9    10   ar
    21    10    11   ar
    22    11    12   ar
    23    12    13    1
    24    12    14   ar
    25    14    15   ar
    26    15    16   ar
    27     4     5    1
    28     6     5    1
    29    28    22   ar
    30     6     1    1
    31     6     2    1
    32    16     7   ar
    33    16    10   ar
    34    18    21    1
