@<TRIPOS>MOLECULE
*****
 25 27 0 0 0
SMALL
GASTEIGER

@<TRIPOS>ATOM
      1 C         142.7268  139.8829  168.0413 C.2     1  UNL1        0.3724
      2 N         143.0916  140.2065  169.4599 N.2     1  UNL1        0.0463
      3 C         141.6701  140.6820  167.3377 C.ar    1  UNL1        0.2281
      4 C         140.1903  140.5742  167.5580 C.ar    1  UNL1        0.0484
      5 C         139.5134  141.5547  166.6468 C.ar    1  UNL1        0.0409
      6 C         140.5749  142.2685  165.8633 C.ar    1  UNL1        0.1457
      7 O         141.9078  141.7291  166.2904 O.2     1  UNL1       -0.4460
      8 C         140.3440  143.3346  164.8336 C.ar    1  UNL1        0.0346
      9 C         141.5078  144.0836  164.2556 C.ar    1  UNL1        0.0039
     10 C         141.2770  145.1496  163.2259 C.ar    1  UNL1        0.0115
     11 C         139.8821  145.4665  162.7743 C.ar    1  UNL1        0.0577
     12 CL        139.6512  146.5326  161.7445 Cl      1  UNL1       -0.0822
     13 C         138.7182  144.7175  163.3524 C.ar    1  UNL1        0.0115
     14 C         138.9492  143.6515  164.3820 C.ar    1  UNL1        0.0039
     15 N         143.4186  138.7603  167.3264 N.pl3   1  UNL1       -0.1956
     16 H         143.9236  138.0878  167.8382 H       1  UNL1        0.2986
     17 C         140.8875  137.2708  163.0398 C.3     1  UNL1        0.0311
     18 C         142.0754  137.9175  163.6883 C.ar    1  UNL1       -0.0185
     19 C         143.1857  138.4662  162.8421 C.ar    1  UNL1       -0.0040
     20 C         144.3736  139.1130  163.4906 C.ar    1  UNL1        0.0032
     21 C         144.4512  139.2110  164.9853 C.ar    1  UNL1        0.0401
     22 C         143.3410  138.6623  165.8316 C.ar    1  UNL1        0.1354
     23 C         142.1530  138.0156  165.1830 C.ar    1  UNL1        0.0359
     24 C         142.3998  141.3291  170.1748 C.1     1  UNL1        0.3377
     25 N         141.7080  142.4516  170.8897 N.1     1  UNL1       -0.1405
@<TRIPOS>BOND
     1    17    18    1
     2    18    19   ar
     3    19    20   ar
     4    20    21   ar
     5    21    22   ar
     6    22    15    1
     7    15     1    1
     8     1     2    2
     9     2    24    1
    10    24    25    3
    11     1     3    1
    12     3     4   ar
    13     4     5   ar
    14     5     6   ar
    15     6     8    1
    16     8     9   ar
    17     9    10   ar
    18    10    11   ar
    19    11    12    1
    20    11    13   ar
    21    13    14   ar
    22     6     7   ar
    23    22    23   ar
    24    23    18   ar
    25     7     3   ar
    26    14     8   ar
    27    15    16    1
@<TRIPOS>MOLECULE
*****
 25 27 0 0 0
SMALL
GASTEIGER

@<TRIPOS>ATOM
      1 C         143.0858  138.7063  163.3683 C.2     1  UNL1        0.3724
      2 N         144.0594  139.5189  162.5671 N.2     1  UNL1        0.0463
      3 C         142.9302  138.9582  164.8388 C.ar    1  UNL1        0.2281
      4 C         143.6565  138.2409  165.9379 C.ar    1  UNL1        0.0484
      5 C         143.1962  138.8109  167.2468 C.ar    1  UNL1        0.0409
      6 C         142.1854  139.8805  166.9566 C.ar    1  UNL1        0.1457
      7 O         142.0210  139.9715  165.4684 O.2     1  UNL1       -0.4460
      8 C         141.4654  140.7130  167.9757 C.ar    1  UNL1        0.0346
      9 C         141.9862  142.0724  168.3371 C.ar    1  UNL1        0.0039
     10 C         141.2662  142.9048  169.3562 C.ar    1  UNL1        0.0115
     11 C         140.0253  142.3779  170.0139 C.ar    1  UNL1        0.0577
     12 CL        139.3052  143.2103  171.0330 Cl      1  UNL1       -0.0822
     13 C         139.5045  141.0184  169.6524 C.ar    1  UNL1        0.0115
     14 C         140.2245  140.1860  168.6333 C.ar    1  UNL1        0.0039
     15 N         142.2679  137.6419  162.6990 N.pl3   1  UNL1       -0.1956
     16 H         142.6432  136.7409  162.5701 H       1  UNL1        0.2986
     17 C         139.0624  139.4968  159.0543 C.3     1  UNL1        0.0311
     18 C         139.2754  138.8776  160.4038 C.ar    1  UNL1       -0.0185
     19 C         138.0987  138.5668  161.2805 C.ar    1  UNL1       -0.0040
     20 C         138.3117  137.9476  162.6301 C.ar    1  UNL1        0.0032
     21 C         139.7014  137.6393  163.1029 C.ar    1  UNL1        0.0401
     22 C         140.8781  137.9502  162.2262 C.ar    1  UNL1        0.1354
     23 C         140.6651  138.5693  160.8766 C.ar    1  UNL1        0.0359
     24 C         144.8773  140.5833  163.2363 C.1     1  UNL1        0.3377
     25 N         145.6952  141.6478  163.9056 N.1     1  UNL1       -0.1405
@<TRIPOS>BOND
     1    17    18    1
     2    18    19   ar
     3    19    20   ar
     4    20    21   ar
     5    21    22   ar
     6    22    15    1
     7    15     1    1
     8     1     2    2
     9     2    24    1
    10    24    25    3
    11     1     3    1
    12     3     4   ar
    13     4     5   ar
    14     5     6   ar
    15     6     8    1
    16     8     9   ar
    17     9    10   ar
    18    10    11   ar
    19    11    12    1
    20    11    13   ar
    21    13    14   ar
    22     6     7   ar
    23    22    23   ar
    24    23    18   ar
    25     7     3   ar
    26    14     8   ar
    27    15    16    1
@<TRIPOS>MOLECULE
*****
 25 27 0 0 0
SMALL
GASTEIGER

@<TRIPOS>ATOM
      1 C         138.5064  139.5903  163.8272 C.2     1  UNL1        0.3724
      2 N         139.0800  138.4488  163.0409 N.2     1  UNL1        0.0463
      3 C         138.8875  139.7762  165.2661 C.ar    1  UNL1        0.2281
      4 C         138.3082  139.0349  166.4344 C.ar    1  UNL1        0.0484
      5 C         138.9774  139.5366  167.6796 C.ar    1  UNL1        0.0409
      6 C         139.9703  140.5879  167.2809 C.ar    1  UNL1        0.1457
      7 O         139.9147  140.7359  165.7892 O.2     1  UNL1       -0.4460
      8 C         140.8622  141.3562  168.2105 C.ar    1  UNL1        0.0346
      9 C         142.2617  140.8828  168.4691 C.ar    1  UNL1        0.0039
     10 C         143.1536  141.6511  169.3988 C.ar    1  UNL1        0.0115
     11 C         142.6458  142.8929  170.0697 C.ar    1  UNL1        0.0577
     12 CL        143.5377  143.6613  170.9994 Cl      1  UNL1       -0.0822
     13 C         141.2462  143.3663  169.8111 C.ar    1  UNL1        0.0115
     14 C         140.3544  142.5979  168.8815 C.ar    1  UNL1        0.0039
     15 N         137.5519  140.5458  163.1747 N.pl3   1  UNL1       -0.1956
     16 H         136.7217  140.2099  162.7659 H       1  UNL1        0.2986
     17 C         138.1911  145.0613  165.6650 C.3     1  UNL1        0.0311
     18 C         138.1819  144.2708  164.3903 C.ar    1  UNL1       -0.0185
     19 C         138.4830  144.9475  163.0859 C.ar    1  UNL1       -0.0040
     20 C         138.4738  144.1570  161.8112 C.ar    1  UNL1        0.0032
     21 C         138.1634  142.6898  161.8407 C.ar    1  UNL1        0.0401
     22 C         137.8623  142.0131  163.1451 C.ar    1  UNL1        0.1354
     23 C         137.8715  142.8036  164.4198 C.ar    1  UNL1        0.0359
     24 C         140.0345  137.4933  163.6935 C.1     1  UNL1        0.3377
     25 N         140.9891  136.5379  164.3460 N.1     1  UNL1       -0.1405
@<TRIPOS>BOND
     1    17    18    1
     2    18    19   ar
     3    19    20   ar
     4    20    21   ar
     5    21    22   ar
     6    22    15    1
     7    15     1    1
     8     1     2    2
     9     2    24    1
    10    24    25    3
    11     1     3    1
    12     3     4   ar
    13     4     5   ar
    14     5     6   ar
    15     6     8    1
    16     8     9   ar
    17     9    10   ar
    18    10    11   ar
    19    11    12    1
    20    11    13   ar
    21    13    14   ar
    22     6     7   ar
    23    22    23   ar
    24    23    18   ar
    25     7     3   ar
    26    14     8   ar
    27    15    16    1
@<TRIPOS>MOLECULE
*****
 25 27 0 0 0
SMALL
GASTEIGER

@<TRIPOS>ATOM
      1 C         142.4497  143.9689  161.5963 C.2     1  UNL1        0.3724
      2 N         141.8729  144.9721  160.6418 N.2     1  UNL1        0.0463
      3 C         141.7047  143.6097  162.8476 C.ar    1  UNL1        0.2281
      4 C         141.4729  144.5099  164.0249 C.ar    1  UNL1        0.0484
      5 C         140.6857  143.7438  165.0463 C.ar    1  UNL1        0.0409
      6 C         140.4309  142.3701  164.5004 C.ar    1  UNL1        0.1457
      7 O         141.0607  142.2873  163.1415 O.2     1  UNL1       -0.4460
      8 C         139.6785  141.2721  165.1918 C.ar    1  UNL1        0.0346
      9 C         138.7052  140.4296  164.4218 C.ar    1  UNL1        0.0039
     10 C         137.9528  139.3316  165.1132 C.ar    1  UNL1        0.0115
     11 C         138.1737  139.0760  166.5747 C.ar    1  UNL1        0.0577
     12 CL        137.4212  137.9779  167.2662 Cl      1  UNL1       -0.0822
     13 C         139.1470  139.9185  167.3447 C.ar    1  UNL1        0.0115
     14 C         139.8993  141.0165  166.6532 C.ar    1  UNL1        0.0039
     15 N         143.7715  143.3250  161.2993 N.pl3   1  UNL1       -0.1956
     16 H         144.3490  143.6905  160.5907 H       1  UNL1        0.2986
     17 C         143.7528  138.1826  162.0441 C.3     1  UNL1        0.0311
     18 C         144.2041  139.5529  162.4544 C.ar    1  UNL1       -0.0185
     19 C         145.0974  139.7225  163.6475 C.ar    1  UNL1       -0.0040
     20 C         145.5487  141.0929  164.0578 C.ar    1  UNL1        0.0032
     21 C         145.1067  142.2937  163.2751 C.ar    1  UNL1        0.0401
     22 C         144.2135  142.1242  162.0821 C.ar    1  UNL1        0.1354
     23 C         143.7622  140.7538  161.6718 C.ar    1  UNL1        0.0359
     24 C         140.5511  145.6161  160.9387 C.1     1  UNL1        0.3377
     25 N         139.2293  146.2600  161.2357 N.1     1  UNL1       -0.1405
@<TRIPOS>BOND
     1    17    18    1
     2    18    19   ar
     3    19    20   ar
     4    20    21   ar
     5    21    22   ar
     6    22    15    1
     7    15     1    1
     8     1     2    2
     9     2    24    1
    10    24    25    3
    11     1     3    1
    12     3     4   ar
    13     4     5   ar
    14     5     6   ar
    15     6     8    1
    16     8     9   ar
    17     9    10   ar
    18    10    11   ar
    19    11    12    1
    20    11    13   ar
    21    13    14   ar
    22     6     7   ar
    23    22    23   ar
    24    23    18   ar
    25     7     3   ar
    26    14     8   ar
    27    15    16    1
@<TRIPOS>MOLECULE
*****
 25 27 0 0 0
SMALL
GASTEIGER

@<TRIPOS>ATOM
      1 C         142.2340  144.0429  161.7996 C.2     1  UNL1        0.3724
      2 N         142.9532  143.6420  160.5457 N.2     1  UNL1        0.0463
      3 C         142.8012  143.6770  163.1391 C.ar    1  UNL1        0.2281
      4 C         143.9779  144.3260  163.8054 C.ar    1  UNL1        0.0484
      5 C         144.1953  143.6479  165.1257 C.ar    1  UNL1        0.0409
      6 C         143.1528  142.5798  165.2753 C.ar    1  UNL1        0.1457
      7 O         142.2912  142.5978  164.0475 O.2     1  UNL1       -0.4460
      8 C         142.9989  141.6559  166.4469 C.ar    1  UNL1        0.0346
      9 C         142.9775  142.2095  167.8408 C.ar    1  UNL1        0.0039
     10 C         142.8236  141.2856  169.0124 C.ar    1  UNL1        0.0115
     11 C         142.6910  139.8081  168.7901 C.ar    1  UNL1        0.0577
     12 CL        142.5371  138.8842  169.9618 Cl      1  UNL1       -0.0822
     13 C         142.7124  139.2545  167.3962 C.ar    1  UNL1        0.0115
     14 C         142.8663  140.1784  166.2246 C.ar    1  UNL1        0.0039
     15 N         140.9476  144.8097  161.7139 N.pl3   1  UNL1       -0.1956
     16 H         140.8716  145.5767  161.1013 H       1  UNL1        0.2986
     17 C         138.2404  145.2141  166.1306 C.3     1  UNL1        0.0311
     18 C         138.4235  144.6101  164.7698 C.ar    1  UNL1       -0.0185
     19 C         137.4360  143.6044  164.2566 C.ar    1  UNL1       -0.0040
     20 C         137.6191  143.0004  162.8958 C.ar    1  UNL1        0.0032
     21 C         138.7896  143.4021  162.0483 C.ar    1  UNL1        0.0401
     22 C         139.7770  144.4079  162.5614 C.ar    1  UNL1        0.1354
     23 C         139.5940  145.0119  163.9222 C.ar    1  UNL1        0.0359
     24 C         144.2395  142.8753  160.6314 C.1     1  UNL1        0.3377
     25 N         145.5258  142.1085  160.7171 N.1     1  UNL1       -0.1405
@<TRIPOS>BOND
     1    17    18    1
     2    18    19   ar
     3    19    20   ar
     4    20    21   ar
     5    21    22   ar
     6    22    15    1
     7    15     1    1
     8     1     2    2
     9     2    24    1
    10    24    25    3
    11     1     3    1
    12     3     4   ar
    13     4     5   ar
    14     5     6   ar
    15     6     8    1
    16     8     9   ar
    17     9    10   ar
    18    10    11   ar
    19    11    12    1
    20    11    13   ar
    21    13    14   ar
    22     6     7   ar
    23    22    23   ar
    24    23    18   ar
    25     7     3   ar
    26    14     8   ar
    27    15    16    1
@<TRIPOS>MOLECULE
*****
 25 27 0 0 0
SMALL
GASTEIGER

@<TRIPOS>ATOM
      1 C         138.3459  142.7808  162.1928 C.2     1  UNL1        0.3724
      2 N         138.6688  143.7125  161.0624 N.2     1  UNL1        0.0463
      3 C         138.7448  143.1357  163.5945 C.ar    1  UNL1        0.2281
      4 C         138.0753  144.1522  164.4711 C.ar    1  UNL1        0.0484
      5 C         138.7999  144.1813  165.7842 C.ar    1  UNL1        0.0409
      6 C         139.9174  143.1827  165.7190 C.ar    1  UNL1        0.1457
      7 O         139.8833  142.5365  164.3658 O.2     1  UNL1       -0.4460
      8 C         140.8969  142.8829  166.8148 C.ar    1  UNL1        0.0346
      9 C         140.4920  143.0504  168.2493 C.ar    1  UNL1        0.0039
     10 C         141.4715  142.7506  169.3450 C.ar    1  UNL1        0.0115
     11 C         142.8559  142.2833  169.0062 C.ar    1  UNL1        0.0577
     12 CL        143.8355  141.9835  170.1019 Cl      1  UNL1       -0.0822
     13 C         143.2609  142.1157  167.5716 C.ar    1  UNL1        0.0115
     14 C         142.2813  142.4155  166.4759 C.ar    1  UNL1        0.0039
     15 N         137.6242  141.4942  161.9214 N.pl3   1  UNL1       -0.1956
     16 H         136.7129  141.5100  161.5493 H       1  UNL1        0.2986
     17 C         138.8091  137.7021  165.2705 C.3     1  UNL1        0.0311
     18 C         138.8835  138.2874  163.8914 C.ar    1  UNL1       -0.0185
     19 C         139.6247  137.5619  162.8077 C.ar    1  UNL1       -0.0040
     20 C         139.6990  138.1472  161.4286 C.ar    1  UNL1        0.0032
     21 C         139.0323  139.4579  161.1332 C.ar    1  UNL1        0.0401
     22 C         138.2911  140.1834  162.2168 C.ar    1  UNL1        0.1354
     23 C         138.2167  139.5981  163.5959 C.ar    1  UNL1        0.0359
     24 C         139.3905  144.9991  161.3338 C.1     1  UNL1        0.3377
     25 N         140.1122  146.2858  161.6052 N.1     1  UNL1       -0.1405
@<TRIPOS>BOND
     1    17    18    1
     2    18    19   ar
     3    19    20   ar
     4    20    21   ar
     5    21    22   ar
     6    22    15    1
     7    15     1    1
     8     1     2    2
     9     2    24    1
    10    24    25    3
    11     1     3    1
    12     3     4   ar
    13     4     5   ar
    14     5     6   ar
    15     6     8    1
    16     8     9   ar
    17     9    10   ar
    18    10    11   ar
    19    11    12    1
    20    11    13   ar
    21    13    14   ar
    22     6     7   ar
    23    22    23   ar
    24    23    18   ar
    25     7     3   ar
    26    14     8   ar
    27    15    16    1
@<TRIPOS>MOLECULE
*****
 25 27 0 0 0
SMALL
GASTEIGER

@<TRIPOS>ATOM
      1 C         143.7451  141.2841  160.7081 C.2     1  UNL1        0.3724
      2 N         143.7691  140.5730  159.3875 N.2     1  UNL1        0.0463
      3 C         143.3301  140.5493  161.9481 C.ar    1  UNL1        0.2281
      4 C         144.2396  139.7944  162.8717 C.ar    1  UNL1        0.0484
      5 C         143.4043  139.2189  163.9768 C.ar    1  UNL1        0.0409
      6 C         141.9785  139.6181  163.7361 C.ar    1  UNL1        0.1457
      7 O         141.9327  140.4403  162.4824 O.2     1  UNL1       -0.4460
      8 C         140.8047  139.2583  164.5979 C.ar    1  UNL1        0.0346
      9 C         140.4017  140.1567  165.7295 C.ar    1  UNL1        0.0039
     10 C         139.2279  139.7968  166.5912 C.ar    1  UNL1        0.0115
     11 C         138.4571  138.5387  166.3214 C.ar    1  UNL1        0.0577
     12 CL        137.2832  138.1788  167.1832 Cl      1  UNL1       -0.0822
     13 C         138.8602  137.6403  165.1898 C.ar    1  UNL1        0.0115
     14 C         140.0339  138.0001  164.3281 C.ar    1  UNL1        0.0039
     15 N         144.1362  142.7300  160.7885 N.pl3   1  UNL1       -0.1956
     16 H         144.8231  143.0886  160.1812 H       1  UNL1        0.2986
     17 C         140.0362  145.5271  162.3265 C.3     1  UNL1        0.0311
     18 C         141.4307  145.0280  162.5632 C.ar    1  UNL1       -0.0185
     19 C         142.1698  145.4282  163.8055 C.ar    1  UNL1       -0.0040
     20 C         143.5644  144.9291  164.0422 C.ar    1  UNL1        0.0032
     21 C         144.2199  144.0297  163.0366 C.ar    1  UNL1        0.0401
     22 C         143.4808  143.6294  161.7942 C.ar    1  UNL1        0.1354
     23 C         142.0862  144.1286  161.5575 C.ar    1  UNL1        0.0359
     24 C         143.3780  139.1271  159.3071 C.1     1  UNL1        0.3377
     25 N         142.9869  137.6813  159.2266 N.1     1  UNL1       -0.1405
@<TRIPOS>BOND
     1    17    18    1
     2    18    19   ar
     3    19    20   ar
     4    20    21   ar
     5    21    22   ar
     6    22    15    1
     7    15     1    1
     8     1     2    2
     9     2    24    1
    10    24    25    3
    11     1     3    1
    12     3     4   ar
    13     4     5   ar
    14     5     6   ar
    15     6     8    1
    16     8     9   ar
    17     9    10   ar
    18    10    11   ar
    19    11    12    1
    20    11    13   ar
    21    13    14   ar
    22     6     7   ar
    23    22    23   ar
    24    23    18   ar
    25     7     3   ar
    26    14     8   ar
    27    15    16    1
@<TRIPOS>MOLECULE
*****
 25 27 0 0 0
SMALL
GASTEIGER

@<TRIPOS>ATOM
      1 C         141.4067  139.7959  161.6150 C.2     1  UNL1        0.3724
      2 N         140.2198  139.6007  160.7187 N.2     1  UNL1        0.0463
      3 C         141.3861  139.2571  163.0147 C.ar    1  UNL1        0.2281
      4 C         141.5390  137.8176  163.4077 C.ar    1  UNL1        0.0484
      5 C         141.4564  137.7340  164.9031 C.ar    1  UNL1        0.0409
      6 C         141.2524  139.1219  165.4343 C.ar    1  UNL1        0.1457
      7 O         141.2090  140.0632  164.2672 O.2     1  UNL1       -0.4460
      8 C         141.1159  139.5019  166.8790 C.ar    1  UNL1        0.0346
      9 C         139.7730  139.8768  167.4322 C.ar    1  UNL1        0.0039
     10 C         139.6365  140.2567  168.8768 C.ar    1  UNL1        0.0115
     11 C         140.8428  140.2617  169.7682 C.ar    1  UNL1        0.0577
     12 CL        140.7063  140.6416  171.2129 Cl      1  UNL1       -0.0822
     13 C         142.1857  139.8868  169.2150 C.ar    1  UNL1        0.0115
     14 C         142.3222  139.5069  167.7704 C.ar    1  UNL1        0.0039
     15 N         142.6141  140.5297  161.1115 N.pl3   1  UNL1       -0.1956
     16 H         142.8257  140.5281  160.1500 H       1  UNL1        0.2986
     17 C         143.6788  144.7904  163.8888 C.3     1  UNL1        0.0311
     18 C         144.0315  143.3964  163.4616 C.ar    1  UNL1       -0.0185
     19 C         145.2693  142.7389  163.9959 C.ar    1  UNL1       -0.0040
     20 C         145.6220  141.3449  163.5687 C.ar    1  UNL1        0.0032
     21 C         144.7370  140.6085  162.6072 C.ar    1  UNL1        0.0401
     22 C         143.4992  141.2661  162.0730 C.ar    1  UNL1        0.1354
     23 C         143.1465  142.6601  162.5002 C.ar    1  UNL1        0.0359
     24 C         139.0124  138.8668  161.2221 C.1     1  UNL1        0.3377
     25 N         137.8050  138.1329  161.7256 N.1     1  UNL1       -0.1405
@<TRIPOS>BOND
     1    17    18    1
     2    18    19   ar
     3    19    20   ar
     4    20    21   ar
     5    21    22   ar
     6    22    15    1
     7    15     1    1
     8     1     2    2
     9     2    24    1
    10    24    25    3
    11     1     3    1
    12     3     4   ar
    13     4     5   ar
    14     5     6   ar
    15     6     8    1
    16     8     9   ar
    17     9    10   ar
    18    10    11   ar
    19    11    12    1
    20    11    13   ar
    21    13    14   ar
    22     6     7   ar
    23    22    23   ar
    24    23    18   ar
    25     7     3   ar
    26    14     8   ar
    27    15    16    1
@<TRIPOS>MOLECULE
*****
 25 27 0 0 0
SMALL
GASTEIGER

@<TRIPOS>ATOM
      1 C         141.6171  143.4898  160.2657 C.2     1  UNL1        0.3724
      2 N         141.1566  143.5032  158.8381 N.2     1  UNL1        0.0463
      3 C         140.6899  143.0228  161.3484 C.ar    1  UNL1        0.2281
      4 C         139.6486  143.8544  162.0369 C.ar    1  UNL1        0.0484
      5 C         138.9564  142.9877  163.0467 C.ar    1  UNL1        0.0409
      6 C         139.5699  141.6204  162.9823 C.ar    1  UNL1        0.1457
      7 O         140.6412  141.6421  161.9326 O.2     1  UNL1       -0.4460
      8 C         139.1804  140.4389  163.8203 C.ar    1  UNL1        0.0346
      9 C         139.4134  139.0479  163.3098 C.ar    1  UNL1        0.0039
     10 C         139.0239  137.8664  164.1478 C.ar    1  UNL1        0.0115
     11 C         138.4014  138.0759  165.4963 C.ar    1  UNL1        0.0577
     12 CL        138.0119  136.8944  166.3344 Cl      1  UNL1       -0.0822
     13 C         138.1684  139.4670  166.0068 C.ar    1  UNL1        0.0115
     14 C         138.5579  140.6484  165.1688 C.ar    1  UNL1        0.0039
     15 N         143.0046  143.9434  160.6105 N.pl3   1  UNL1       -0.1956
     16 H         143.5591  144.3913  159.9313 H       1  UNL1        0.2986
     17 C         145.4751  140.9076  164.0282 C.3     1  UNL1        0.0311
     18 C         144.7826  142.1968  163.6989 C.ar    1  UNL1       -0.0185
     19 C         144.6328  143.2573  164.7491 C.ar    1  UNL1       -0.0040
     20 C         143.9403  144.5465  164.4198 C.ar    1  UNL1        0.0032
     21 C         143.3976  144.7752  163.0403 C.ar    1  UNL1        0.0401
     22 C         143.5473  143.7147  161.9901 C.ar    1  UNL1        0.1354
     23 C         144.2398  142.4256  162.3194 C.ar    1  UNL1        0.0359
     24 C         139.7691  143.0496  158.4933 C.1     1  UNL1        0.3377
     25 N         138.3816  142.5960  158.1485 N.1     1  UNL1       -0.1405
@<TRIPOS>BOND
     1    17    18    1
     2    18    19   ar
     3    19    20   ar
     4    20    21   ar
     5    21    22   ar
     6    22    15    1
     7    15     1    1
     8     1     2    2
     9     2    24    1
    10    24    25    3
    11     1     3    1
    12     3     4   ar
    13     4     5   ar
    14     5     6   ar
    15     6     8    1
    16     8     9   ar
    17     9    10   ar
    18    10    11   ar
    19    11    12    1
    20    11    13   ar
    21    13    14   ar
    22     6     7   ar
    23    22    23   ar
    24    23    18   ar
    25     7     3   ar
    26    14     8   ar
    27    15    16    1
