@<TRIPOS>MOLECULE
*****
 41 47 0 0 0
SMALL
GASTEIGER

@<TRIPOS>ATOM
      1 C         137.7219  139.5494  162.0356 C.3     1  UNL1        0.0700
      2 C         137.6458  140.7286  162.9595 C.3     1  UNL1        0.0193
      3 C         138.2305  140.6402  164.3381 C.3     1  UNL1        0.0287
      4 C         138.8912  139.3724  164.7926 C.3     1  UNL1        0.0955
      5 C         138.9672  138.1933  163.8687 C.3     1  UNL1        0.0287
      6 C         138.3825  138.2818  162.4901 C.3     1  UNL1        0.0193
      7 O         138.5852  139.3734  164.0282 O.3     1  UNL1       -0.3571
      8 C         138.0565  139.4534  162.7818 C.3     1  UNL1        0.1562
      9 N         137.1372  139.6379  160.6570 N.3     1  UNL1       -0.2926
     10 H         136.9208  138.6842  160.3672 H       1  UNL1        0.1236
     11 C         137.9292  140.2593  159.5450 C.3     1  UNL1        0.1152
     12 O         141.7226  135.1169  155.0822 O.2     1  UNL1       -0.2707
     13 C         141.7424  136.1998  156.1200 C.2     1  UNL1        0.2718
     14 C         143.0463  136.6514  156.7080 C.3     1  UNL1        0.2898
     15 O         143.0661  137.7343  157.7458 O.3     1  UNL1       -0.4628
     16 C         141.7819  138.3655  158.1956 C.ar    1  UNL1        0.1708
     17 C         141.8016  139.4483  159.2334 C.ar    1  UNL1        0.0411
     18 C         140.5173  140.0796  159.6832 C.ar    1  UNL1        0.0193
     19 C         139.2134  139.6280  159.0952 C.ar    1  UNL1        0.0765
     20 N         139.1937  138.5451  158.0574 N.ar    1  UNL1       -0.2304
     21 C         140.4779  137.9139  157.6076 C.ar    1  UNL1        0.1682
     22 N         140.4581  136.8311  156.5698 N.am    1  UNL1       -0.2639
     23 H         139.6023  136.5347  156.1839 H       1  UNL1        0.1565
     24 C         139.4759  139.2840  166.1712 C.3     1  UNL1        0.0604
     25 C         140.6393  140.1519  166.5495 C.3     1  UNL1        0.1336
     26 O         141.0794  139.9069  165.1366 O.3     1  UNL1       -0.3806
     27 C         141.8948  140.9685  166.6325 C.3     1  UNL1        0.1402
     28 N         141.9875  141.5367  168.0176 N.ar    1  UNL1       -0.2915
     29 C         143.0081  142.4179  168.6748 C.ar    1  UNL1        0.2611
     30 O         144.2063  142.8834  167.9017 O.2     1  UNL1       -0.2670
     31 C         142.8305  142.8335  170.1050 C.ar    1  UNL1        0.0623
     32 C         141.6323  142.3680  170.8781 C.ar    1  UNL1        0.0255
     33 C         140.6117  141.4869  170.2210 C.ar    1  UNL1        0.0981
     34 N         139.3351  140.8795  170.7422 N.ar    1  UNL1       -0.2302
     35 C         138.4031  140.0062  169.9557 C.ar    1  UNL1        0.1654
     36 CL        137.1606  139.4650  170.5986 Cl      1  UNL1       -0.0589
     37 C         138.7136  139.6741  168.5262 C.ar    1  UNL1        0.1680
     38 F         137.7816  138.8009  167.7397 F       1  UNL1       -0.2019
     39 C         139.9561  140.2154  167.8834 C.ar    1  UNL1        0.0508
     40 C         140.7893  141.0713  168.7907 C.ar    1  UNL1        0.0807
     41 H         141.9157  140.3705  164.9734 H       1  UNL1        0.2108
@<TRIPOS>BOND
     1    12    13    2
     2    13    14    1
     3    14    15    1
     4    15    16    1
     5    16    17   ar
     6    17    18   ar
     7    18    19   ar
     8    19    11    1
     9    11     9    1
    10     9     1    1
    11     1     2    1
    12     2     3    1
    13     3     4    1
    14     4    24    1
    15    24    25    1
    16    25    26    1
    17    25    27    1
    18    27    28    1
    19    28    29   ar
    20    29    30    2
    21    29    31   ar
    22    31    32   ar
    23    32    33   ar
    24    33    34   ar
    25    34    35   ar
    26    35    36    1
    27    35    37   ar
    28    37    38    1
    29    37    39   ar
    30    39    40   ar
    31     4     5    1
    32     5     6    1
    33     4     7    1
    34     7     8    1
    35    19    20   ar
    36    20    21   ar
    37    21    22    1
    38    22    13   am
    39    21    16   ar
    40     6     1    1
    41     8     1    1
    42    39    25    1
    43    40    28   ar
    44    40    33   ar
    45     9    10    1
    46    26    41    1
    47    22    23    1
@<TRIPOS>MOLECULE
*****
 41 47 0 0 0
SMALL
GASTEIGER

@<TRIPOS>ATOM
      1 C         137.7549  139.5245  162.0679 C.3     1  UNL1        0.0700
      2 C         137.6473  140.6826  163.0152 C.3     1  UNL1        0.0193
      3 C         138.2426  140.5859  164.3886 C.3     1  UNL1        0.0287
      4 C         138.9456  139.3311  164.8147 C.3     1  UNL1        0.0955
      5 C         139.0532  138.1731  163.8675 C.3     1  UNL1        0.0287
      6 C         138.4578  138.2699  162.4940 C.3     1  UNL1        0.0193
      7 O         138.6351  139.3373  164.0522 O.3     1  UNL1       -0.3571
      8 C         138.0968  139.4247  162.8103 C.3     1  UNL1        0.1562
      9 N         137.1595  139.6212  160.6945 N.3     1  UNL1       -0.2926
     10 H         136.9634  138.6674  160.3908 H       1  UNL1        0.1236
     11 C         137.9298  140.2783  159.5878 C.3     1  UNL1        0.1152
     12 O         143.9735  144.4679  162.1708 O.2     1  UNL1       -0.2707
     13 C         143.4398  143.2703  161.4421 C.2     1  UNL1        0.2718
     14 C         144.3869  142.2717  160.8457 C.3     1  UNL1        0.2898
     15 O         143.8533  141.0741  160.1170 O.3     1  UNL1       -0.4628
     16 C         142.3724  140.8752  159.9847 C.ar    1  UNL1        0.1708
     17 C         141.8387  139.6776  159.2560 C.ar    1  UNL1        0.0411
     18 C         140.3578  139.4787  159.1238 C.ar    1  UNL1        0.0193
     19 C         139.4107  140.4773  159.7202 C.ar    1  UNL1        0.0765
     20 N         139.9444  141.6749  160.4488 N.ar    1  UNL1       -0.2304
     21 C         141.4253  141.8738  160.5811 C.ar    1  UNL1        0.1682
     22 N         141.9589  143.0714  161.3098 N.am    1  UNL1       -0.2639
     23 H         141.3373  143.7268  161.7012 H       1  UNL1        0.1565
     24 C         139.5409  139.2345  166.1881 C.3     1  UNL1        0.0604
     25 C         140.6933  140.1156  166.5698 C.3     1  UNL1        0.1336
     26 O         141.1559  139.8510  165.1676 O.3     1  UNL1       -0.3806
     27 C         141.9424  140.9414  166.6583 C.3     1  UNL1        0.1402
     28 N         142.0109  141.5322  168.0353 N.ar    1  UNL1       -0.2915
     29 C         143.0162  142.4301  168.6934 C.ar    1  UNL1        0.2611
     30 O         144.2230  142.8908  167.9308 O.2     1  UNL1       -0.2670
     31 C         142.8148  142.8674  170.1140 C.ar    1  UNL1        0.0623
     32 C         141.6080  142.4067  170.8766 C.ar    1  UNL1        0.0255
     33 C         140.6027  141.5088  170.2185 C.ar    1  UNL1        0.0981
     34 N         139.3221  140.9018  170.7304 N.ar    1  UNL1       -0.2302
     35 C         138.4073  140.0102  169.9442 C.ar    1  UNL1        0.1654
     36 CL        137.1586  139.4715  170.5771 Cl      1  UNL1       -0.0589
     37 C         138.7412  139.6573  168.5251 C.ar    1  UNL1        0.1680
     38 F         137.8264  138.7657  167.7388 F       1  UNL1       -0.2019
     39 C         139.9899  140.1960  167.8921 C.ar    1  UNL1        0.0508
     40 C         140.8042  141.0715  168.7979 C.ar    1  UNL1        0.0807
     41 H         141.9917  140.3171  165.0095 H       1  UNL1        0.2108
@<TRIPOS>BOND
     1    12    13    2
     2    13    14    1
     3    14    15    1
     4    15    16    1
     5    16    17   ar
     6    17    18   ar
     7    18    19   ar
     8    19    11    1
     9    11     9    1
    10     9     1    1
    11     1     2    1
    12     2     3    1
    13     3     4    1
    14     4    24    1
    15    24    25    1
    16    25    26    1
    17    25    27    1
    18    27    28    1
    19    28    29   ar
    20    29    30    2
    21    29    31   ar
    22    31    32   ar
    23    32    33   ar
    24    33    34   ar
    25    34    35   ar
    26    35    36    1
    27    35    37   ar
    28    37    38    1
    29    37    39   ar
    30    39    40   ar
    31     4     5    1
    32     5     6    1
    33     4     7    1
    34     7     8    1
    35    19    20   ar
    36    20    21   ar
    37    21    22    1
    38    22    13   am
    39    21    16   ar
    40     6     1    1
    41     8     1    1
    42    39    25    1
    43    40    28   ar
    44    40    33   ar
    45     9    10    1
    46    26    41    1
    47    22    23    1
@<TRIPOS>MOLECULE
*****
 41 47 0 0 0
SMALL
GASTEIGER

@<TRIPOS>ATOM
      1 C         138.0529  139.6349  161.1473 C.3     1  UNL1        0.0700
      2 C         138.5732  138.2649  161.4676 C.3     1  UNL1        0.0193
      3 C         139.3783  138.0407  162.7132 C.3     1  UNL1        0.0287
      4 C         139.6631  139.1865  163.6386 C.3     1  UNL1        0.0955
      5 C         139.1428  140.5564  163.3183 C.3     1  UNL1        0.0287
      6 C         138.3377  140.7806  162.0727 C.3     1  UNL1        0.0193
      7 O         139.2174  139.3582  162.9679 O.3     1  UNL1       -0.3571
      8 C         138.4895  139.5609  161.8416 C.3     1  UNL1        0.1562
      9 N         137.2478  139.8591  159.9017 N.3     1  UNL1       -0.2926
     10 H         136.7783  138.9782  159.6920 H       1  UNL1        0.1236
     11 C         137.9270  140.2991  158.6388 C.3     1  UNL1        0.1152
     12 O         142.1381  134.5832  155.4222 O.2     1  UNL1       -0.2707
     13 C         142.0663  135.9100  156.1184 C.2     1  UNL1        0.2718
     14 C         143.3263  136.6581  156.4385 C.3     1  UNL1        0.2898
     15 O         143.2546  137.9849  157.1347 O.3     1  UNL1       -0.4628
     16 C         141.9227  138.5634  157.5107 C.ar    1  UNL1        0.1708
     17 C         141.8508  139.8901  158.2069 C.ar    1  UNL1        0.0411
     18 C         140.5189  140.4687  158.5829 C.ar    1  UNL1        0.0193
     19 C         139.2589  139.7205  158.2628 C.ar    1  UNL1        0.0765
     20 N         139.3308  138.3938  157.5666 N.ar    1  UNL1       -0.2304
     21 C         140.6626  137.8153  157.1906 C.ar    1  UNL1        0.1682
     22 N         140.7344  136.4886  156.4944 N.am    1  UNL1       -0.2639
     23 H         139.9074  135.9975  156.2843 H       1  UNL1        0.1565
     24 C         140.4683  138.9623  164.8842 C.3     1  UNL1        0.0604
     25 C         139.9150  139.3682  166.2180 C.3     1  UNL1        0.1336
     26 O         138.8484  138.3608  165.9059 O.3     1  UNL1       -0.3806
     27 C         139.1388  139.5635  167.4866 C.3     1  UNL1        0.1402
     28 N         139.8414  140.6067  168.3040 N.ar    1  UNL1       -0.2915
     29 C         139.5353  141.2055  169.6448 C.ar    1  UNL1        0.2611
     30 O         138.3249  140.7560  170.4083 O.2     1  UNL1       -0.2670
     31 C         140.4396  142.2537  170.2222 C.ar    1  UNL1        0.0623
     32 C         141.6501  142.7031  169.4587 C.ar    1  UNL1        0.0255
     33 C         141.9562  142.1044  168.1179 C.ar    1  UNL1        0.0981
     34 N         143.0792  142.3576  167.1458 N.ar    1  UNL1       -0.2302
     35 C         143.2559  141.6718  165.8236 C.ar    1  UNL1        0.1654
     36 CL        144.4237  142.0194  164.9485 Cl      1  UNL1       -0.0589
     37 C         142.2650  140.6383  165.3764 C.ar    1  UNL1        0.1680
     38 F         142.4418  139.9525  164.0541 F       1  UNL1       -0.2019
     39 C         141.0973  140.2907  166.2514 C.ar    1  UNL1        0.0508
     40 C         141.0518  141.0562  167.5406 C.ar    1  UNL1        0.0807
     41 H         138.2109  138.3279  166.6363 H       1  UNL1        0.2108
@<TRIPOS>BOND
     1    12    13    2
     2    13    14    1
     3    14    15    1
     4    15    16    1
     5    16    17   ar
     6    17    18   ar
     7    18    19   ar
     8    19    11    1
     9    11     9    1
    10     9     1    1
    11     1     2    1
    12     2     3    1
    13     3     4    1
    14     4    24    1
    15    24    25    1
    16    25    26    1
    17    25    27    1
    18    27    28    1
    19    28    29   ar
    20    29    30    2
    21    29    31   ar
    22    31    32   ar
    23    32    33   ar
    24    33    34   ar
    25    34    35   ar
    26    35    36    1
    27    35    37   ar
    28    37    38    1
    29    37    39   ar
    30    39    40   ar
    31     4     5    1
    32     5     6    1
    33     4     7    1
    34     7     8    1
    35    19    20   ar
    36    20    21   ar
    37    21    22    1
    38    22    13   am
    39    21    16   ar
    40     6     1    1
    41     8     1    1
    42    39    25    1
    43    40    28   ar
    44    40    33   ar
    45     9    10    1
    46    26    41    1
    47    22    23    1
@<TRIPOS>MOLECULE
*****
 41 47 0 0 0
SMALL
GASTEIGER

@<TRIPOS>ATOM
      1 C         141.8579  144.4237  161.8472 C.3     1  UNL1        0.0700
      2 C         143.1270  143.6299  161.9435 C.3     1  UNL1        0.0193
      3 C         143.2969  142.6168  163.0366 C.3     1  UNL1        0.0287
      4 C         142.1977  142.3976  164.0335 C.3     1  UNL1        0.0955
      5 C         140.9286  143.1914  163.9372 C.3     1  UNL1        0.0287
      6 C         140.7588  144.2044  162.8441 C.3     1  UNL1        0.0193
      7 O         142.0586  142.9637  163.4521 O.3     1  UNL1       -0.3571
      8 C         141.9050  143.8797  162.4637 C.3     1  UNL1        0.1562
      9 N         141.6880  145.4367  160.7541 N.3     1  UNL1       -0.2926
     10 H         141.0404  146.1425  161.1048 H       1  UNL1        0.1236
     11 C         141.1776  145.0107  159.4096 C.3     1  UNL1        0.1152
     12 O         147.4185  141.7904  156.0284 O.2     1  UNL1       -0.2707
     13 C         145.9785  141.7108  156.4411 C.2     1  UNL1        0.2718
     14 C         145.1791  140.4780  156.1393 C.3     1  UNL1        0.2898
     15 O         143.7391  140.3983  156.5520 O.3     1  UNL1       -0.4628
     16 C         143.0988  141.5514  157.2664 C.ar    1  UNL1        0.1708
     17 C         141.6589  141.4718  157.6791 C.ar    1  UNL1        0.0411
     18 C         141.0185  142.6249  158.3935 C.ar    1  UNL1        0.0193
     19 C         141.8181  143.8576  158.6952 C.ar    1  UNL1        0.0765
     20 N         143.2580  143.9372  158.2825 N.ar    1  UNL1       -0.2304
     21 C         143.8983  142.7841  157.5681 C.ar    1  UNL1        0.1682
     22 N         145.3382  142.8639  157.1554 N.am    1  UNL1       -0.2639
     23 H         145.8630  143.6730  157.3535 H       1  UNL1        0.1565
     24 C         142.3676  141.3845  165.1266 C.3     1  UNL1        0.0604
     25 C         142.4989  141.8337  166.5517 C.3     1  UNL1        0.1336
     26 O         143.6732  142.6100  166.0338 O.3     1  UNL1       -0.3806
     27 C         142.8756  142.4452  167.8686 C.3     1  UNL1        0.1402
     28 N         141.9066  141.9529  168.9024 N.ar    1  UNL1       -0.2915
     29 C         141.7866  142.2202  170.3735 C.ar    1  UNL1        0.2611
     30 O         142.7622  143.1359  171.0514 O.2     1  UNL1       -0.2670
     31 C         140.6910  141.5717  171.1666 C.ar    1  UNL1        0.0623
     32 C         139.7154  140.6560  170.4887 C.ar    1  UNL1        0.0255
     33 C         139.8354  140.3887  169.0176 C.ar    1  UNL1        0.0981
     34 N         139.0145  139.5309  168.0898 N.ar    1  UNL1       -0.2302
     35 C         139.2589  139.3594  166.6199 C.ar    1  UNL1        0.1654
     36 CL        138.3620  138.4717  165.8090 Cl      1  UNL1       -0.0589
     37 C         140.4001  140.0758  165.9608 C.ar    1  UNL1        0.1680
     38 F         140.6445  139.9044  164.4908 F       1  UNL1       -0.2019
     39 C         141.2970  140.9635  166.7716 C.ar    1  UNL1        0.0508
     40 C         140.9310  141.0371  168.2244 C.ar    1  UNL1        0.0807
     41 H         144.0821  143.1024  166.7627 H       1  UNL1        0.2108
@<TRIPOS>BOND
     1    12    13    2
     2    13    14    1
     3    14    15    1
     4    15    16    1
     5    16    17   ar
     6    17    18   ar
     7    18    19   ar
     8    19    11    1
     9    11     9    1
    10     9     1    1
    11     1     2    1
    12     2     3    1
    13     3     4    1
    14     4    24    1
    15    24    25    1
    16    25    26    1
    17    25    27    1
    18    27    28    1
    19    28    29   ar
    20    29    30    2
    21    29    31   ar
    22    31    32   ar
    23    32    33   ar
    24    33    34   ar
    25    34    35   ar
    26    35    36    1
    27    35    37   ar
    28    37    38    1
    29    37    39   ar
    30    39    40   ar
    31     4     5    1
    32     5     6    1
    33     4     7    1
    34     7     8    1
    35    19    20   ar
    36    20    21   ar
    37    21    22    1
    38    22    13   am
    39    21    16   ar
    40     6     1    1
    41     8     1    1
    42    39    25    1
    43    40    28   ar
    44    40    33   ar
    45     9    10    1
    46    26    41    1
    47    22    23    1
@<TRIPOS>MOLECULE
*****
 41 47 0 0 0
SMALL
GASTEIGER

@<TRIPOS>ATOM
      1 C         142.2248  143.5310  161.3321 C.3     1  UNL1        0.0700
      2 C         143.4336  142.6702  161.5509 C.3     1  UNL1        0.0193
      3 C         143.5320  141.8134  162.7782 C.3     1  UNL1        0.0287
      4 C         142.4216  141.8173  163.7867 C.3     1  UNL1        0.0955
      5 C         141.2128  142.6781  163.5679 C.3     1  UNL1        0.0287
      6 C         141.1144  143.5349  162.3406 C.3     1  UNL1        0.0193
      7 O         142.3226  142.3036  163.1297 O.3     1  UNL1       -0.3571
      8 C         142.2337  143.0783  162.0200 C.3     1  UNL1        0.1562
      9 N         142.1264  144.3878  160.1049 N.3     1  UNL1       -0.2926
     10 H         141.5618  145.1991  160.3567 H       1  UNL1        0.1236
     11 C         141.5397  143.8266  158.8436 C.3     1  UNL1        0.1152
     12 O         137.9046  150.0438  155.8630 O.2     1  UNL1       -0.2707
     13 C         138.8312  148.8762  155.6946 C.2     1  UNL1        0.2718
     14 C         139.4725  148.6135  154.3644 C.3     1  UNL1        0.2898
     15 O         140.3991  147.4459  154.1960 O.3     1  UNL1       -0.4628
     16 C         140.6843  146.5411  155.3579 C.ar    1  UNL1        0.1708
     17 C         141.6108  145.3736  155.1895 C.ar    1  UNL1        0.0411
     18 C         141.8959  144.4688  156.3515 C.ar    1  UNL1        0.0193
     19 C         141.2545  144.7315  157.6817 C.ar    1  UNL1        0.0765
     20 N         140.3280  145.8991  157.8500 N.ar    1  UNL1       -0.2304
     21 C         140.0429  146.8039  156.6881 C.ar    1  UNL1        0.1682
     22 N         139.1164  147.9714  156.8565 N.am    1  UNL1       -0.2639
     23 H         138.6954  148.1438  157.7296 H       1  UNL1        0.1565
     24 C         142.5200  140.9605  165.0140 C.3     1  UNL1        0.0604
     25 C         142.5840  141.5977  166.3704 C.3     1  UNL1        0.1336
     26 O         143.8040  142.2758  165.8209 O.3     1  UNL1       -0.3806
     27 C         142.9031  142.3766  167.6120 C.3     1  UNL1        0.1402
     28 N         141.8670  142.0468  168.6452 N.ar    1  UNL1       -0.2915
     29 C         141.6732  142.5144  170.0572 C.ar    1  UNL1        0.2611
     30 O         142.6326  143.4972  170.6602 O.2     1  UNL1       -0.2670
     31 C         140.5200  141.9992  170.8663 C.ar    1  UNL1        0.0623
     32 C         139.5605  141.0164  170.2633 C.ar    1  UNL1        0.0255
     33 C         139.7543  140.5488  168.8513 C.ar    1  UNL1        0.0981
     34 N         138.9644  139.5866  168.0024 N.ar    1  UNL1       -0.2302
     35 C         139.2847  139.2120  166.5857 C.ar    1  UNL1        0.1654
     36 CL        138.4118  138.2374  165.8520 Cl      1  UNL1       -0.0589
     37 C         140.4778  139.8119  165.9027 C.ar    1  UNL1        0.1680
     38 F         140.7980  139.4373  164.4860 F       1  UNL1       -0.2019
     39 C         141.3507  140.7865  166.6364 C.ar    1  UNL1        0.0508
     40 C         140.9075  141.0640  168.0423 C.ar    1  UNL1        0.0807
     41 H         144.1844  142.8560  166.4988 H       1  UNL1        0.2108
@<TRIPOS>BOND
     1    12    13    2
     2    13    14    1
     3    14    15    1
     4    15    16    1
     5    16    17   ar
     6    17    18   ar
     7    18    19   ar
     8    19    11    1
     9    11     9    1
    10     9     1    1
    11     1     2    1
    12     2     3    1
    13     3     4    1
    14     4    24    1
    15    24    25    1
    16    25    26    1
    17    25    27    1
    18    27    28    1
    19    28    29   ar
    20    29    30    2
    21    29    31   ar
    22    31    32   ar
    23    32    33   ar
    24    33    34   ar
    25    34    35   ar
    26    35    36    1
    27    35    37   ar
    28    37    38    1
    29    37    39   ar
    30    39    40   ar
    31     4     5    1
    32     5     6    1
    33     4     7    1
    34     7     8    1
    35    19    20   ar
    36    20    21   ar
    37    21    22    1
    38    22    13   am
    39    21    16   ar
    40     6     1    1
    41     8     1    1
    42    39    25    1
    43    40    28   ar
    44    40    33   ar
    45     9    10    1
    46    26    41    1
    47    22    23    1
@<TRIPOS>MOLECULE
*****
 41 47 0 0 0
SMALL
GASTEIGER

@<TRIPOS>ATOM
      1 C         141.3264  139.1506  158.2511 C.3     1  UNL1        0.0700
      2 C         142.1930  139.5653  159.4031 C.3     1  UNL1        0.0193
      3 C         141.7429  139.3087  160.8107 C.3     1  UNL1        0.0287
      4 C         140.4260  138.6373  161.0665 C.3     1  UNL1        0.0955
      5 C         139.5594  138.2226  159.9145 C.3     1  UNL1        0.0287
      6 C         140.0096  138.4792  158.5069 C.3     1  UNL1        0.0193
      7 O         140.6303  138.7568  160.2778 O.3     1  UNL1       -0.3571
      8 C         141.0373  138.9889  159.0050 C.3     1  UNL1        0.1562
      9 N         141.7765  139.4072  156.8435 N.3     1  UNL1       -0.2926
     10 H         140.9483  139.3378  156.2522 H       1  UNL1        0.1236
     11 C         142.8270  138.5358  156.2214 C.3     1  UNL1        0.1152
     12 O         145.1597  131.3241  158.0382 O.2     1  UNL1       -0.2707
     13 C         144.1821  132.2429  157.3671 C.2     1  UNL1        0.2718
     14 C         143.0047  131.6764  156.6305 C.3     1  UNL1        0.2898
     15 O         142.0271  132.5951  155.9593 O.3     1  UNL1       -0.4628
     16 C         142.2271  134.0802  156.0248 C.ar    1  UNL1        0.1708
     17 C         141.2496  134.9990  155.3538 C.ar    1  UNL1        0.0411
     18 C         141.4496  136.4841  155.4193 C.ar    1  UNL1        0.0193
     19 C         142.6271  137.0506  156.1559 C.ar    1  UNL1        0.0765
     20 N         143.6046  136.1318  156.8270 N.ar    1  UNL1       -0.2304
     21 C         143.4046  134.6467  156.7615 C.ar    1  UNL1        0.1682
     22 N         144.3821  133.7280  157.4326 N.am    1  UNL1       -0.2639
     23 H         145.1550  134.0998  157.9161 H       1  UNL1        0.1565
     24 C         139.9759  138.3806  162.4741 C.3     1  UNL1        0.0604
     25 C         140.9900  138.1916  163.5631 C.3     1  UNL1        0.1336
     26 O         141.4486  137.0388  162.7200 O.3     1  UNL1       -0.3806
     27 C         142.0999  137.7615  164.4759 C.3     1  UNL1        0.1402
     28 N         142.1153  138.6880  165.6555 N.ar    1  UNL1       -0.2915
     29 C         142.9891  138.7482  166.8732 C.ar    1  UNL1        0.2611
     30 O         144.0896  137.7455  167.0569 O.2     1  UNL1       -0.2670
     31 C         142.7625  139.8110  167.9071 C.ar    1  UNL1        0.0623
     32 C         141.6621  140.8136  167.7234 C.ar    1  UNL1        0.0255
     33 C         140.7882  140.7534  166.5057 C.ar    1  UNL1        0.0981
     34 N         139.6304  141.6116  166.0660 N.ar    1  UNL1       -0.2302
     35 C         138.8414  141.4271  164.8037 C.ar    1  UNL1        0.1654
     36 CL        137.7079  142.3565  164.4851 Cl      1  UNL1       -0.0589
     37 C         139.1859  140.3132  163.8600 C.ar    1  UNL1        0.1680
     38 F         138.3969  140.1287  162.5977 F       1  UNL1       -0.2019
     39 C         140.3194  139.3838  164.1786 C.ar    1  UNL1        0.0508
     40 C         141.0148  139.6906  165.4718 C.ar    1  UNL1        0.0807
     41 H         142.1985  136.6006  163.1519 H       1  UNL1        0.2108
@<TRIPOS>BOND
     1    12    13    2
     2    13    14    1
     3    14    15    1
     4    15    16    1
     5    16    17   ar
     6    17    18   ar
     7    18    19   ar
     8    19    11    1
     9    11     9    1
    10     9     1    1
    11     1     2    1
    12     2     3    1
    13     3     4    1
    14     4    24    1
    15    24    25    1
    16    25    26    1
    17    25    27    1
    18    27    28    1
    19    28    29   ar
    20    29    30    2
    21    29    31   ar
    22    31    32   ar
    23    32    33   ar
    24    33    34   ar
    25    34    35   ar
    26    35    36    1
    27    35    37   ar
    28    37    38    1
    29    37    39   ar
    30    39    40   ar
    31     4     5    1
    32     5     6    1
    33     4     7    1
    34     7     8    1
    35    19    20   ar
    36    20    21   ar
    37    21    22    1
    38    22    13   am
    39    21    16   ar
    40     6     1    1
    41     8     1    1
    42    39    25    1
    43    40    28   ar
    44    40    33   ar
    45     9    10    1
    46    26    41    1
    47    22    23    1
@<TRIPOS>MOLECULE
*****
 41 47 0 0 0
SMALL
GASTEIGER

@<TRIPOS>ATOM
      1 C         142.1642  137.9136  158.0078 C.3     1  UNL1        0.0700
      2 C         142.4128  138.3441  159.4230 C.3     1  UNL1        0.0193
      3 C         141.2867  138.8910  160.2494 C.3     1  UNL1        0.0287
      4 C         139.9120  139.0075  159.6604 C.3     1  UNL1        0.0955
      5 C         139.6634  138.5769  158.2452 C.3     1  UNL1        0.0287
      6 C         140.7896  138.0300  157.4190 C.3     1  UNL1        0.0193
      7 O         140.4975  138.7017  159.1688 O.3     1  UNL1       -0.3571
      8 C         141.5156  138.2072  158.4217 C.3     1  UNL1        0.1562
      9 N         143.2903  137.3666  157.1815 N.3     1  UNL1       -0.2926
     10 H         143.8659  138.1620  156.9049 H       1  UNL1        0.1236
     11 C         142.9955  136.5903  155.9323 C.3     1  UNL1        0.1152
     12 O         145.1424  129.6390  158.7290 O.2     1  UNL1       -0.2707
     13 C         144.2409  130.4692  157.8641 C.2     1  UNL1        0.2718
     14 C         143.1535  129.8125  157.0666 C.3     1  UNL1        0.2898
     15 O         142.2519  130.6426  156.2016 O.3     1  UNL1       -0.4628
     16 C         142.4378  132.1295  156.1343 C.ar    1  UNL1        0.1708
     17 C         141.5363  132.9597  155.2694 C.ar    1  UNL1        0.0411
     18 C         141.7222  134.4466  155.2021 C.ar    1  UNL1        0.0193
     19 C         142.8096  135.1033  155.9997 C.ar    1  UNL1        0.0765
     20 N         143.7112  134.2732  156.8646 N.ar    1  UNL1       -0.2304
     21 C         143.5252  132.7862  156.9319 C.ar    1  UNL1        0.1682
     22 N         144.4268  131.9562  157.7968 N.am    1  UNL1       -0.2639
     23 H         145.1405  132.3872  158.3203 H       1  UNL1        0.1565
     24 C         138.7859  139.5544  160.4868 C.3     1  UNL1        0.0604
     25 C         138.7290  141.0201  160.8006 C.3     1  UNL1        0.1336
     26 O         138.7936  141.1811  159.3107 O.3     1  UNL1       -0.3806
     27 C         138.6857  142.5195  160.8030 C.3     1  UNL1        0.1402
     28 N         138.6062  142.9787  162.2287 N.ar    1  UNL1       -0.2915
     29 C         138.5383  144.3466  162.8403 C.ar    1  UNL1        0.2611
     30 O         138.5440  145.5622  161.9614 O.2     1  UNL1       -0.2670
     31 C         138.4646  144.4990  164.3307 C.ar    1  UNL1        0.0623
     32 C         138.4589  143.2835  165.2095 C.ar    1  UNL1        0.0255
     33 C         138.5268  141.9155  164.5979 C.ar    1  UNL1        0.0981
     34 N         138.5374  140.5439  165.2217 N.ar    1  UNL1       -0.2302
     35 C         138.6097  139.2476  164.4705 C.ar    1  UNL1        0.1654
     36 CL        138.6125  137.9469  165.2176 Cl      1  UNL1       -0.0589
     37 C         138.6792  139.2520  162.9721 C.ar    1  UNL1        0.1680
     38 F         138.7515  137.9557  162.2209 F       1  UNL1       -0.2019
     39 C         138.6764  140.5527  162.2249 C.ar    1  UNL1        0.0508
     40 C         138.6004  141.7631  163.1076 C.ar    1  UNL1        0.0807
     41 H         138.7768  142.1247  159.0864 H       1  UNL1        0.2108
@<TRIPOS>BOND
     1    12    13    2
     2    13    14    1
     3    14    15    1
     4    15    16    1
     5    16    17   ar
     6    17    18   ar
     7    18    19   ar
     8    19    11    1
     9    11     9    1
    10     9     1    1
    11     1     2    1
    12     2     3    1
    13     3     4    1
    14     4    24    1
    15    24    25    1
    16    25    26    1
    17    25    27    1
    18    27    28    1
    19    28    29   ar
    20    29    30    2
    21    29    31   ar
    22    31    32   ar
    23    32    33   ar
    24    33    34   ar
    25    34    35   ar
    26    35    36    1
    27    35    37   ar
    28    37    38    1
    29    37    39   ar
    30    39    40   ar
    31     4     5    1
    32     5     6    1
    33     4     7    1
    34     7     8    1
    35    19    20   ar
    36    20    21   ar
    37    21    22    1
    38    22    13   am
    39    21    16   ar
    40     6     1    1
    41     8     1    1
    42    39    25    1
    43    40    28   ar
    44    40    33   ar
    45     9    10    1
    46    26    41    1
    47    22    23    1
@<TRIPOS>MOLECULE
*****
 41 47 0 0 0
SMALL
GASTEIGER

@<TRIPOS>ATOM
      1 C         142.6230  139.1101  160.4342 C.3     1  UNL1        0.0700
      2 C         142.4012  138.2201  161.6210 C.3     1  UNL1        0.0193
      3 C         141.7688  138.7715  162.8644 C.3     1  UNL1        0.0287
      4 C         141.3582  140.2132  162.9209 C.3     1  UNL1        0.0955
      5 C         141.5799  141.1033  161.7341 C.3     1  UNL1        0.0287
      6 C         142.2124  140.5517  160.4908 C.3     1  UNL1        0.0193
      7 O         141.7010  139.9563  162.2178 O.3     1  UNL1       -0.3571
      8 C         142.2728  139.4577  161.0936 C.3     1  UNL1        0.1562
      9 N         143.2554  138.5587  159.1909 N.3     1  UNL1       -0.2926
     10 H         144.0741  139.1351  158.9964 H       1  UNL1        0.1236
     11 C         142.4659  138.4842  157.9177 C.3     1  UNL1        0.1152
     12 O         145.3674  131.4724  156.1377 O.2     1  UNL1       -0.2707
     13 C         144.2948  132.5105  155.9887 C.2     1  UNL1        0.2718
     14 C         143.1170  132.2493  155.0975 C.3     1  UNL1        0.2898
     15 O         142.0444  133.2873  154.9485 O.3     1  UNL1       -0.4628
     16 C         142.1498  134.5865  155.6908 C.ar    1  UNL1        0.1708
     17 C         141.0773  135.6246  155.5418 C.ar    1  UNL1        0.0411
     18 C         141.1827  136.9238  156.2841 C.ar    1  UNL1        0.0193
     19 C         142.3606  137.1849  157.1754 C.ar    1  UNL1        0.0765
     20 N         143.4331  136.1469  157.3243 N.ar    1  UNL1       -0.2304
     21 C         143.3277  134.8477  156.5820 C.ar    1  UNL1        0.1682
     22 N         144.4002  133.8097  156.7310 N.am    1  UNL1       -0.2639
     23 H         145.1733  133.9811  157.3160 H       1  UNL1        0.1565
     24 C         140.7257  140.7647  164.1643 C.3     1  UNL1        0.0604
     25 C         141.5871  141.2924  165.2731 C.3     1  UNL1        0.1336
     26 O         142.3994  141.8730  164.1537 O.3     1  UNL1       -0.3806
     27 C         142.6182  141.9415  166.1480 C.3     1  UNL1        0.1402
     28 N         142.2631  141.6518  167.5763 N.ar    1  UNL1       -0.2915
     29 C         142.9170  142.0351  168.8707 C.ar    1  UNL1        0.2611
     30 O         144.1676  142.8633  168.8628 O.2     1  UNL1       -0.2670
     31 C         142.3203  141.5902  170.1729 C.ar    1  UNL1        0.0623
     32 C         141.0696  140.7621  170.1808 C.ar    1  UNL1        0.0255
     33 C         140.4158  140.3788  168.8864 C.ar    1  UNL1        0.0981
     34 N         139.1778  139.5704  168.5957 N.ar    1  UNL1       -0.2302
     35 C         138.6390  139.2661  167.2293 C.ar    1  UNL1        0.1654
     36 CL        137.3918  138.4461  167.0804 Cl      1  UNL1       -0.0589
     37 C         139.3475  139.7816  166.0118 C.ar    1  UNL1        0.1680
     38 F         138.8087  139.4773  164.6455 F       1  UNL1       -0.2019
     39 C         140.5947  140.6016  166.1607 C.ar    1  UNL1        0.0508
     40 C         141.0125  140.8236  167.5842 C.ar    1  UNL1        0.0807
     41 H         143.1546  142.3589  164.5205 H       1  UNL1        0.2108
@<TRIPOS>BOND
     1    12    13    2
     2    13    14    1
     3    14    15    1
     4    15    16    1
     5    16    17   ar
     6    17    18   ar
     7    18    19   ar
     8    19    11    1
     9    11     9    1
    10     9     1    1
    11     1     2    1
    12     2     3    1
    13     3     4    1
    14     4    24    1
    15    24    25    1
    16    25    26    1
    17    25    27    1
    18    27    28    1
    19    28    29   ar
    20    29    30    2
    21    29    31   ar
    22    31    32   ar
    23    32    33   ar
    24    33    34   ar
    25    34    35   ar
    26    35    36    1
    27    35    37   ar
    28    37    38    1
    29    37    39   ar
    30    39    40   ar
    31     4     5    1
    32     5     6    1
    33     4     7    1
    34     7     8    1
    35    19    20   ar
    36    20    21   ar
    37    21    22    1
    38    22    13   am
    39    21    16   ar
    40     6     1    1
    41     8     1    1
    42    39    25    1
    43    40    28   ar
    44    40    33   ar
    45     9    10    1
    46    26    41    1
    47    22    23    1
@<TRIPOS>MOLECULE
*****
 41 47 0 0 0
SMALL
GASTEIGER

@<TRIPOS>ATOM
      1 C         139.9417  137.5672  164.2878 C.3     1  UNL1        0.0700
      2 C         139.5018  137.8772  162.8876 C.3     1  UNL1        0.0193
      3 C         140.5155  138.2603  161.8505 C.3     1  UNL1        0.0287
      4 C         141.9692  138.3334  162.2135 C.3     1  UNL1        0.0955
      5 C         142.4090  138.0234  163.6137 C.3     1  UNL1        0.0287
      6 C         141.3952  137.6403  164.6508 C.3     1  UNL1        0.0193
      7 O         141.4505  138.1189  162.8160 O.3     1  UNL1       -0.3571
      8 C         140.5339  137.7725  163.7537 C.3     1  UNL1        0.1562
      9 N         138.9280  137.1841  165.3249 N.3     1  UNL1       -0.2926
     10 H         138.2667  136.5535  164.8716 H       1  UNL1        0.1236
     11 C         138.1163  138.2446  166.0079 C.3     1  UNL1        0.1152
     12 O         140.7701  142.1790  172.1909 O.2     1  UNL1       -0.2707
     13 C         140.5630  142.0740  170.7089 C.2     1  UNL1        0.2718
     14 C         141.0336  143.1755  169.8061 C.3     1  UNL1        0.2898
     15 O         140.8267  143.0706  168.3241 O.3     1  UNL1       -0.4628
     16 C         140.1491  141.8641  167.7450 C.ar    1  UNL1        0.1708
     17 C         139.9421  141.7591  166.2631 C.ar    1  UNL1        0.0411
     18 C         139.2645  140.5526  165.6841 C.ar    1  UNL1        0.0193
     19 C         138.7939  139.4511  166.5870 C.ar    1  UNL1        0.0765
     20 N         139.0009  139.5561  168.0689 N.ar    1  UNL1       -0.2304
     21 C         139.6785  140.7626  168.6479 C.ar    1  UNL1        0.1682
     22 N         139.8855  140.8675  170.1299 N.am    1  UNL1       -0.2639
     23 H         139.5766  140.1445  170.7224 H       1  UNL1        0.1565
     24 C         142.9829  138.7165  161.1764 C.3     1  UNL1        0.0604
     25 C         142.9578  140.0903  160.5746 C.3     1  UNL1        0.1336
     26 O         143.0315  140.5457  162.0019 O.3     1  UNL1       -0.3806
     27 C         142.9481  141.5592  160.2712 C.3     1  UNL1        0.1402
     28 N         142.8737  141.7245  158.7822 N.ar    1  UNL1       -0.2915
     29 C         142.8344  142.9430  157.9083 C.ar    1  UNL1        0.2611
     30 O         142.8707  144.3098  158.5251 O.2     1  UNL1       -0.2670
     31 C         142.7587  142.7947  156.4176 C.ar    1  UNL1        0.0623
     32 C         142.7224  141.4279  155.8008 C.ar    1  UNL1        0.0255
     33 C         142.7617  140.2094  156.6746 C.ar    1  UNL1        0.0981
     34 N         142.7392  138.7406  156.3391 N.ar    1  UNL1       -0.2302
     35 C         142.7851  137.6202  157.3353 C.ar    1  UNL1        0.1654
     36 CL        142.7560  136.1963  156.8646 Cl      1  UNL1       -0.0589
     37 C         142.8602  137.9238  158.8024 C.ar    1  UNL1        0.1680
     38 F         142.9061  136.8034  159.7987 F       1  UNL1       -0.2019
     39 C         142.8894  139.3477  159.2731 C.ar    1  UNL1        0.0508
     40 C         142.8374  140.3577  158.1653 C.ar    1  UNL1        0.0807
     41 H         143.0367  141.5152  162.0321 H       1  UNL1        0.2108
@<TRIPOS>BOND
     1    12    13    2
     2    13    14    1
     3    14    15    1
     4    15    16    1
     5    16    17   ar
     6    17    18   ar
     7    18    19   ar
     8    19    11    1
     9    11     9    1
    10     9     1    1
    11     1     2    1
    12     2     3    1
    13     3     4    1
    14     4    24    1
    15    24    25    1
    16    25    26    1
    17    25    27    1
    18    27    28    1
    19    28    29   ar
    20    29    30    2
    21    29    31   ar
    22    31    32   ar
    23    32    33   ar
    24    33    34   ar
    25    34    35   ar
    26    35    36    1
    27    35    37   ar
    28    37    38    1
    29    37    39   ar
    30    39    40   ar
    31     4     5    1
    32     5     6    1
    33     4     7    1
    34     7     8    1
    35    19    20   ar
    36    20    21   ar
    37    21    22    1
    38    22    13   am
    39    21    16   ar
    40     6     1    1
    41     8     1    1
    42    39    25    1
    43    40    28   ar
    44    40    33   ar
    45     9    10    1
    46    26    41    1
    47    22    23    1
