@<TRIPOS>MOLECULE
*****
 31 34 0 0 0
SMALL
GASTEIGER

@<TRIPOS>ATOM
      1 N         139.4246  140.6956  167.3846 N.pl3   1  UNL1       -0.3341
      2 H         138.5367  140.5597  167.7874 H       1  UNL1        0.1466
      3 C         140.6525  140.2040  168.0924 C.2     1  UNL1        0.0457
      4 C         140.8243  140.4588  169.5606 C.2     1  UNL1        0.1096
      5 C         142.0522  139.9672  170.2683 C.2     1  UNL1        0.2410
      6 N         143.1080  139.2210  169.5079 N.2     1  UNL1       -0.0338
      7 C         142.9361  138.9663  168.0397 C.2     1  UNL1        0.3606
      8 N         143.8009  138.2648  167.0347 N.2     1  UNL1       -0.0343
      9 C         143.1076  138.3228  165.7058 C.2     1  UNL1        0.2321
     10 C         141.8143  139.0601  165.8895 C.2     1  UNL1        0.0421
     11 C         141.7083  139.4578  167.3320 C.3     1  UNL1        0.1732
     12 C         139.7685  141.2050  170.3209 C.2     1  UNL1        0.2474
     13 N         140.1238  142.4592  171.0631 N.am    1  UNL1       -0.3252
     14 O         138.3572  140.6971  170.3393 O.2     1  UNL1       -0.2702
     15 H         141.0501  142.7926  171.0512 H       1  UNL1        0.1453
     16 H         139.4308  142.9489  171.5622 H       1  UNL1        0.1453
     17 N         139.8001  142.7912  163.4201 N.pl3   1  UNL1       -0.2903
     18 C         140.5278  143.3207  164.6203 C.3     1  UNL1        0.0941
     19 C         140.4026  142.6222  165.9418 C.3     1  UNL1        0.0438
     20 C         139.5498  141.3941  166.0631 C.3     1  UNL1        0.1052
     21 C         138.8221  140.8647  164.8630 C.3     1  UNL1        0.1982
     22 F         137.9693  139.6368  164.9844 F       1  UNL1       -0.2337
     23 C         138.9473  141.5633  163.5415 C.3     1  UNL1        0.1290
     24 C         140.1756  144.8871  159.4558 C.ar    1  UNL1        0.0877
     25 C         140.5581  145.5988  160.7196 C.ar    1  UNL1        0.0147
     26 C         140.4329  144.9002  162.0410 C.ar    1  UNL1        0.0350
     27 C         139.9252  143.4899  162.0986 C.ar    1  UNL1        0.1318
     28 N         139.5428  142.7782  160.8349 N.ar    1  UNL1       -0.2285
     29 C         139.6680  143.4768  159.5133 C.ar    1  UNL1        0.1105
     30 N         140.4260  146.2844  156.8129 N.1     1  UNL1       -0.1908
     31 C         140.3008  145.5857  158.1343 C.1     1  UNL1        0.1020
@<TRIPOS>BOND
     1    30    31    3
     2    31    24    1
     3    24    25   ar
     4    25    26   ar
     5    26    27   ar
     6    27    17    1
     7    17    18    1
     8    18    19    1
     9    19    20    1
    10    20     1    1
    11     1     3    1
    12     3     4    2
    13     4    12    1
    14    12    13   am
    15    12    14    2
    16     4     5    1
    17     5     6    2
    18     6     7    1
    19     7     8    2
    20     8     9    1
    21     9    10    2
    22    10    11    1
    23    20    21    1
    24    21    22    1
    25    21    23    1
    26    27    28   ar
    27    28    29   ar
    28    29    24   ar
    29    23    17    1
    30    11     3    1
    31    11     7    1
    32     1     2    1
    33    13    15    1
    34    13    16    1
@<TRIPOS>MOLECULE
*****
 31 34 0 0 0
SMALL
GASTEIGER

@<TRIPOS>ATOM
      1 N         141.4629  139.4552  168.6270 N.pl3   1  UNL1       -0.3341
      2 H         141.4150  138.5736  169.0626 H       1  UNL1        0.1466
      3 C         141.1552  140.6967  169.4106 C.2     1  UNL1        0.0457
      4 C         139.7506  140.9709  169.8600 C.2     1  UNL1        0.1096
      5 C         139.4428  142.2125  170.6436 C.2     1  UNL1        0.2410
      6 N         140.5396  143.1796  170.9777 N.2     1  UNL1       -0.0338
      7 C         141.9441  142.9053  170.5283 C.2     1  UNL1        0.3606
      8 N         143.2225  143.6694  170.7071 N.2     1  UNL1       -0.0343
      9 C         144.3203  142.9002  170.0341 C.2     1  UNL1        0.2321
     10 C         143.7205  141.6607  169.4393 C.2     1  UNL1        0.0421
     11 C         142.2519  141.6638  169.7447 C.3     1  UNL1        0.1732
     12 C         138.6539  140.0038  169.5259 C.2     1  UNL1        0.2474
     13 N         137.6254  139.6498  170.5589 N.am    1  UNL1       -0.3252
     14 O         138.5854  139.3905  168.1587 O.2     1  UNL1       -0.2702
     15 H         137.6703  140.0523  171.4563 H       1  UNL1        0.1453
     16 H         136.9056  139.0150  170.3396 H       1  UNL1        0.1453
     17 N         142.6054  139.7603  164.2852 N.pl3   1  UNL1       -0.2903
     18 C         141.4467  140.5532  164.8134 C.3     1  UNL1        0.0941
     19 C         141.0659  140.4515  166.2606 C.3     1  UNL1        0.0438
     20 C         141.8438  139.5569  167.1797 C.3     1  UNL1        0.1052
     21 C         143.0024  138.7640  166.6516 C.3     1  UNL1        0.1982
     22 F         143.7802  137.8695  167.5706 F       1  UNL1       -0.2337
     23 C         143.3832  138.8658  165.2042 C.3     1  UNL1        0.1290
     24 C         143.7477  140.0655  159.9433 C.ar    1  UNL1        0.0877
     25 C         143.9905  138.7902  160.6948 C.ar    1  UNL1        0.0147
     26 C         143.6098  138.6885  162.1421 C.ar    1  UNL1        0.0350
     27 C         142.9862  139.8620  162.8378 C.ar    1  UNL1        0.1318
     28 N         142.7433  141.1372  162.0863 N.ar    1  UNL1       -0.2285
     29 C         143.1241  141.2390  160.6390 C.ar    1  UNL1        0.1105
     30 N         144.5092  140.2689  157.0487 N.1     1  UNL1       -0.1908
     31 C         144.1285  140.1672  158.4960 C.1     1  UNL1        0.1020
@<TRIPOS>BOND
     1    30    31    3
     2    31    24    1
     3    24    25   ar
     4    25    26   ar
     5    26    27   ar
     6    27    17    1
     7    17    18    1
     8    18    19    1
     9    19    20    1
    10    20     1    1
    11     1     3    1
    12     3     4    2
    13     4    12    1
    14    12    13   am
    15    12    14    2
    16     4     5    1
    17     5     6    2
    18     6     7    1
    19     7     8    2
    20     8     9    1
    21     9    10    2
    22    10    11    1
    23    20    21    1
    24    21    22    1
    25    21    23    1
    26    27    28   ar
    27    28    29   ar
    28    29    24   ar
    29    23    17    1
    30    11     3    1
    31    11     7    1
    32     1     2    1
    33    13    15    1
    34    13    16    1
@<TRIPOS>MOLECULE
*****
 31 34 0 0 0
SMALL
GASTEIGER

@<TRIPOS>ATOM
      1 N         142.4500  140.5567  166.6119 N.pl3   1  UNL1       -0.3341
      2 H         143.3430  140.1625  166.7399 H       1  UNL1        0.1466
      3 C         141.4016  140.3995  167.6732 C.2     1  UNL1        0.0457
      4 C         141.6787  140.8571  169.0746 C.2     1  UNL1        0.1096
      5 C         140.6303  140.6999  170.1359 C.2     1  UNL1        0.2410
      6 N         139.3050  140.0852  169.7958 N.2     1  UNL1       -0.0338
      7 C         139.0280  139.6277  168.3944 C.2     1  UNL1        0.3606
      8 N         137.8242  138.9904  167.7660 N.2     1  UNL1       -0.0343
      9 C         138.1286  138.7537  166.3165 C.2     1  UNL1        0.2321
     10 C         139.5204  139.2447  166.0489 C.2     1  UNL1        0.0421
     11 C         140.0763  139.7849  167.3331 C.3     1  UNL1        0.1732
     12 C         143.0039  141.4717  169.4147 C.2     1  UNL1        0.2474
     13 N         143.8150  140.9243  170.5517 N.am    1  UNL1       -0.3252
     14 O         143.5183  142.6339  168.6180 O.2     1  UNL1       -0.2702
     15 H         143.4775  140.1615  171.0746 H       1  UNL1        0.1453
     16 H         144.6849  141.3277  170.7749 H       1  UNL1        0.1453
     17 N         141.5132  142.8300  162.8430 N.pl3   1  UNL1       -0.2903
     18 C         141.3322  143.4865  164.1796 C.3     1  UNL1        0.0941
     19 C         141.6444  142.7288  165.4359 C.3     1  UNL1        0.0438
     20 C         142.1377  141.3145  165.3556 C.3     1  UNL1        0.1052
     21 C         142.3188  140.6579  164.0191 C.3     1  UNL1        0.1982
     22 F         142.8120  139.2437  163.9389 F       1  UNL1       -0.2337
     23 C         142.0065  141.4158  162.7628 C.3     1  UNL1        0.1290
     24 C         140.5764  145.1034  159.0742 C.ar    1  UNL1        0.0877
     25 C         141.2065  143.7445  158.9934 C.ar    1  UNL1        0.0147
     26 C         141.5187  142.9867  160.2497 C.ar    1  UNL1        0.0350
     27 C         141.2009  143.5878  161.5867 C.ar    1  UNL1        0.1318
     28 N         140.5708  144.9466  161.6676 N.ar    1  UNL1       -0.2285
     29 C         140.2585  145.7045  160.4113 C.ar    1  UNL1        0.1105
     30 N         139.9518  146.6189  156.5617 N.1     1  UNL1       -0.1908
     31 C         140.2641  145.8611  157.8180 C.1     1  UNL1        0.1020
@<TRIPOS>BOND
     1    30    31    3
     2    31    24    1
     3    24    25   ar
     4    25    26   ar
     5    26    27   ar
     6    27    17    1
     7    17    18    1
     8    18    19    1
     9    19    20    1
    10    20     1    1
    11     1     3    1
    12     3     4    2
    13     4    12    1
    14    12    13   am
    15    12    14    2
    16     4     5    1
    17     5     6    2
    18     6     7    1
    19     7     8    2
    20     8     9    1
    21     9    10    2
    22    10    11    1
    23    20    21    1
    24    21    22    1
    25    21    23    1
    26    27    28   ar
    27    28    29   ar
    28    29    24   ar
    29    23    17    1
    30    11     3    1
    31    11     7    1
    32     1     2    1
    33    13    15    1
    34    13    16    1
@<TRIPOS>MOLECULE
*****
 31 34 0 0 0
SMALL
GASTEIGER

@<TRIPOS>ATOM
      1 N         142.0768  141.0726  167.1399 N.pl3   1  UNL1       -0.3341
      2 H         142.9964  140.8577  167.4180 H       1  UNL1        0.1466
      3 C         140.9224  140.7226  168.0315 C.2     1  UNL1        0.0457
      4 C         140.8912  141.2178  169.4471 C.2     1  UNL1        0.1096
      5 C         139.7367  140.8678  170.3387 C.2     1  UNL1        0.2410
      6 N         138.6137  140.0226  169.8147 N.2     1  UNL1       -0.0338
      7 C         138.6451  139.5274  168.3992 C.2     1  UNL1        0.3606
      8 N         137.6890  138.6833  167.6097 N.2     1  UNL1       -0.0343
      9 C         138.2524  138.5116  166.2302 C.2     1  UNL1        0.2321
     10 C         139.5567  139.2496  166.1671 C.2     1  UNL1        0.0421
     11 C         139.7995  139.8775  167.5076 C.3     1  UNL1        0.1732
     12 C         142.0141  142.0630  169.9710 C.2     1  UNL1        0.2474
     13 N         142.2783  142.1286  171.4461 N.am    1  UNL1       -0.3252
     14 O         142.8729  142.8426  169.0199 O.2     1  UNL1       -0.2702
     15 H         141.7146  141.6170  172.0704 H       1  UNL1        0.1453
     16 H         143.0154  142.6834  171.7900 H       1  UNL1        0.1453
     17 N         141.3365  143.1050  163.1939 N.pl3   1  UNL1       -0.2903
     18 C         142.2479  141.9157  163.2657 C.3     1  UNL1        0.0941
     19 C         142.4947  141.2383  164.5810 C.3     1  UNL1        0.0438
     20 C         141.8300  141.7501  165.8245 C.3     1  UNL1        0.1052
     21 C         140.9187  142.9393  165.7528 C.3     1  UNL1        0.1982
     22 F         140.2541  143.4510  166.9963 F       1  UNL1       -0.2337
     23 C         140.6719  143.6168  164.4373 C.3     1  UNL1        0.1290
     24 C         140.5962  145.1373  159.2478 C.ar    1  UNL1        0.0877
     25 C         140.1557  145.7926  160.5232 C.ar    1  UNL1        0.0147
     26 C         140.4025  145.1152  161.8385 C.ar    1  UNL1        0.0350
     27 C         141.0897  143.7825  161.8784 C.ar    1  UNL1        0.1318
     28 N         141.5302  143.1272  160.6031 N.ar    1  UNL1       -0.2285
     29 C         141.2834  143.8046  159.2877 C.ar    1  UNL1        0.1105
     30 N         140.1026  146.4923  156.6171 N.1     1  UNL1       -0.1908
     31 C         140.3494  145.8148  157.9325 C.1     1  UNL1        0.1020
@<TRIPOS>BOND
     1    30    31    3
     2    31    24    1
     3    24    25   ar
     4    25    26   ar
     5    26    27   ar
     6    27    17    1
     7    17    18    1
     8    18    19    1
     9    19    20    1
    10    20     1    1
    11     1     3    1
    12     3     4    2
    13     4    12    1
    14    12    13   am
    15    12    14    2
    16     4     5    1
    17     5     6    2
    18     6     7    1
    19     7     8    2
    20     8     9    1
    21     9    10    2
    22    10    11    1
    23    20    21    1
    24    21    22    1
    25    21    23    1
    26    27    28   ar
    27    28    29   ar
    28    29    24   ar
    29    23    17    1
    30    11     3    1
    31    11     7    1
    32     1     2    1
    33    13    15    1
    34    13    16    1
@<TRIPOS>MOLECULE
*****
 31 34 0 0 0
SMALL
GASTEIGER

@<TRIPOS>ATOM
      1 N         144.1283  142.4540  160.7314 N.pl3   1  UNL1       -0.3341
      2 H         144.8108  143.1032  160.4449 H       1  UNL1        0.1466
      3 C         143.5490  141.4883  159.7404 C.2     1  UNL1        0.0457
      4 C         142.9570  141.9942  158.4583 C.2     1  UNL1        0.1096
      5 C         142.3777  141.0285  157.4674 C.2     1  UNL1        0.2410
      6 N         142.3903  139.5571  157.7586 N.2     1  UNL1       -0.0338
      7 C         142.9823  139.0513  159.0407 C.2     1  UNL1        0.3606
      8 N         143.1353  137.6673  159.5983 N.2     1  UNL1       -0.0343
      9 C         143.8091  137.7775  160.9339 C.2     1  UNL1        0.2321
     10 C         144.0726  139.2297  161.2017 C.2     1  UNL1        0.0421
     11 C         143.5616  140.0170  160.0315 C.3     1  UNL1        0.1732
     12 C         142.9444  143.4655  158.1672 C.2     1  UNL1        0.2474
     13 N         143.3107  143.9628  156.8001 N.am    1  UNL1       -0.3252
     14 O         142.5655  144.4398  159.2429 O.2     1  UNL1       -0.2702
     15 H         143.5594  143.3234  156.0940 H       1  UNL1        0.1453
     16 H         143.3024  144.9286  156.6091 H       1  UNL1        0.1453
     17 N         142.7467  142.3839  165.0134 N.pl3   1  UNL1       -0.2903
     18 C         141.7584  142.6214  163.9102 C.3     1  UNL1        0.0941
     19 C         142.2189  142.6448  162.4828 C.3     1  UNL1        0.0438
     20 C         143.6678  142.4306  162.1587 C.3     1  UNL1        0.1052
     21 C         144.6561  142.1931  163.2618 C.3     1  UNL1        0.1982
     22 F         146.1048  141.9789  162.9376 F       1  UNL1       -0.2337
     23 C         144.1954  142.1697  164.6892 C.3     1  UNL1        0.1290
     24 C         141.3649  142.3137  169.2954 C.ar    1  UNL1        0.0877
     25 C         142.8286  142.2291  168.9782 C.ar    1  UNL1        0.0147
     26 C         143.2892  142.2525  167.5508 C.ar    1  UNL1        0.0350
     27 C         142.2861  142.3605  166.4408 C.ar    1  UNL1        0.1318
     28 N         140.8225  142.4451  166.7580 N.ar    1  UNL1       -0.2285
     29 C         140.3619  142.4217  168.1854 C.ar    1  UNL1        0.1105
     30 N         140.4439  142.2670  172.1501 N.1     1  UNL1       -0.1908
     31 C         140.9044  142.2904  170.7228 C.1     1  UNL1        0.1020
@<TRIPOS>BOND
     1    30    31    3
     2    31    24    1
     3    24    25   ar
     4    25    26   ar
     5    26    27   ar
     6    27    17    1
     7    17    18    1
     8    18    19    1
     9    19    20    1
    10    20     1    1
    11     1     3    1
    12     3     4    2
    13     4    12    1
    14    12    13   am
    15    12    14    2
    16     4     5    1
    17     5     6    2
    18     6     7    1
    19     7     8    2
    20     8     9    1
    21     9    10    2
    22    10    11    1
    23    20    21    1
    24    21    22    1
    25    21    23    1
    26    27    28   ar
    27    28    29   ar
    28    29    24   ar
    29    23    17    1
    30    11     3    1
    31    11     7    1
    32     1     2    1
    33    13    15    1
    34    13    16    1
@<TRIPOS>MOLECULE
*****
 31 34 0 0 0
SMALL
GASTEIGER

@<TRIPOS>ATOM
      1 N         138.6326  139.3909  160.4494 N.pl3   1  UNL1       -0.3341
      2 H         137.7591  139.0290  160.1749 H       1  UNL1        0.1466
      3 C         139.7138  139.5951  159.4298 C.2     1  UNL1        0.0457
      4 C         139.4412  140.4111  158.2010 C.2     1  UNL1        0.1096
      5 C         140.5224  140.6153  157.1814 C.2     1  UNL1        0.2410
      6 N         141.8759  140.0037  157.3908 N.2     1  UNL1       -0.0338
      7 C         142.1483  139.1878  158.6196 C.2     1  UNL1        0.3606
      8 N         143.3753  138.4670  159.0942 N.2     1  UNL1       -0.0343
      9 C         143.0524  137.8173  160.4071 C.2     1  UNL1        0.2321
     10 C         141.6260  138.1365  160.7439 C.2     1  UNL1        0.0421
     11 C         141.0672  138.9835  159.6391 C.3     1  UNL1        0.1732
     12 C         138.0878  141.0227  157.9917 C.2     1  UNL1        0.2474
     13 N         137.9708  142.4363  157.5035 N.am    1  UNL1       -0.3252
     14 O         136.8511  140.2209  158.2706 O.2     1  UNL1       -0.2702
     15 H         138.7824  142.9626  157.3204 H       1  UNL1        0.1453
     16 H         137.0824  142.8377  157.3661 H       1  UNL1        0.1453
     17 N         139.3816  140.4324  164.7626 N.pl3   1  UNL1       -0.2903
     18 C         139.5824  141.4672  163.6954 C.3     1  UNL1        0.0941
     19 C         139.3327  141.1200  162.2576 C.3     1  UNL1        0.0438
     20 C         138.8822  139.7380  161.8871 C.3     1  UNL1        0.1052
     21 C         138.6814  138.7033  162.9543 C.3     1  UNL1        0.1982
     22 F         138.2309  137.3214  162.5838 F       1  UNL1       -0.2337
     23 C         138.9311  139.0505  164.3921 C.3     1  UNL1        0.1290
     24 C         140.1307  141.4741  169.0758 C.ar    1  UNL1        0.0877
     25 C         140.5271  142.4333  167.9928 C.ar    1  UNL1        0.0147
     26 C         140.2774  142.0860  166.5551 C.ar    1  UNL1        0.0350
     27 C         139.6313  140.7796  166.2004 C.ar    1  UNL1        0.1318
     28 N         139.2349  139.8204  167.2833 N.ar    1  UNL1       -0.2285
     29 C         139.4846  140.1677  168.7211 C.ar    1  UNL1        0.1105
     30 N         140.6301  142.1686  171.9512 N.1     1  UNL1       -0.1908
     31 C         140.3804  141.8214  170.5135 C.1     1  UNL1        0.1020
@<TRIPOS>BOND
     1    30    31    3
     2    31    24    1
     3    24    25   ar
     4    25    26   ar
     5    26    27   ar
     6    27    17    1
     7    17    18    1
     8    18    19    1
     9    19    20    1
    10    20     1    1
    11     1     3    1
    12     3     4    2
    13     4    12    1
    14    12    13   am
    15    12    14    2
    16     4     5    1
    17     5     6    2
    18     6     7    1
    19     7     8    2
    20     8     9    1
    21     9    10    2
    22    10    11    1
    23    20    21    1
    24    21    22    1
    25    21    23    1
    26    27    28   ar
    27    28    29   ar
    28    29    24   ar
    29    23    17    1
    30    11     3    1
    31    11     7    1
    32     1     2    1
    33    13    15    1
    34    13    16    1
@<TRIPOS>MOLECULE
*****
 31 34 0 0 0
SMALL
GASTEIGER

@<TRIPOS>ATOM
      1 N         138.4831  143.0803  160.4634 N.pl3   1  UNL1       -0.3341
      2 H         137.5763  143.3592  160.2004 H       1  UNL1        0.1466
      3 C         139.5560  142.9414  159.4242 C.2     1  UNL1        0.0457
      4 C         140.6834  143.9295  159.3736 C.2     1  UNL1        0.1096
      5 C         141.7562  143.7906  158.3344 C.2     1  UNL1        0.2410
      6 N         141.7016  142.6636  157.3460 N.2     1  UNL1       -0.0338
      7 C         140.5741  141.6756  157.3967 C.2     1  UNL1        0.3606
      8 N         140.2566  140.4713  156.5607 N.2     1  UNL1       -0.0343
      9 C         138.9875  139.8659  157.0831 C.2     1  UNL1        0.2321
     10 C         138.5207  140.6960  158.2420 C.2     1  UNL1        0.0421
     11 C         139.5013  141.8145  158.4358 C.3     1  UNL1        0.1732
     12 C         140.7380  145.0564  160.3619 C.2     1  UNL1        0.2474
     13 N         141.9439  145.2285  161.2374 N.am    1  UNL1       -0.3252
     14 O         139.5868  146.0114  160.4750 O.2     1  UNL1       -0.2702
     15 H         142.6995  144.6018  161.1632 H       1  UNL1        0.1453
     16 H         141.9797  145.9682  161.8861 H       1  UNL1        0.1453
     17 N         139.4096  142.2224  164.7825 N.pl3   1  UNL1       -0.2903
     18 C         139.9107  141.3005  163.7105 C.3     1  UNL1        0.0941
     19 C         139.6018  141.5865  162.2708 C.3     1  UNL1        0.0438
     20 C         138.7919  142.7944  161.9031 C.3     1  UNL1        0.1052
     21 C         138.2909  143.7162  162.9750 C.3     1  UNL1        0.1982
     22 F         137.4810  144.9240  162.6073 F       1  UNL1       -0.2337
     23 C         138.5997  143.4302  164.4148 C.3     1  UNL1        0.1290
     24 C         140.3362  141.3643  169.1017 C.ar    1  UNL1        0.0877
     25 C         139.7924  140.2784  168.2212 C.ar    1  UNL1        0.0147
     26 C         139.4835  140.5645  166.7815 C.ar    1  UNL1        0.0350
     27 C         139.7185  141.9364  166.2223 C.ar    1  UNL1        0.1318
     28 N         140.2622  143.0222  167.1027 N.ar    1  UNL1       -0.2285
     29 C         140.5711  142.7362  168.5425 C.ar    1  UNL1        0.1105
     30 N         140.9539  140.7921  171.9811 N.1     1  UNL1       -0.1908
     31 C         140.6450  141.0782  170.5414 C.1     1  UNL1        0.1020
@<TRIPOS>BOND
     1    30    31    3
     2    31    24    1
     3    24    25   ar
     4    25    26   ar
     5    26    27   ar
     6    27    17    1
     7    17    18    1
     8    18    19    1
     9    19    20    1
    10    20     1    1
    11     1     3    1
    12     3     4    2
    13     4    12    1
    14    12    13   am
    15    12    14    2
    16     4     5    1
    17     5     6    2
    18     6     7    1
    19     7     8    2
    20     8     9    1
    21     9    10    2
    22    10    11    1
    23    20    21    1
    24    21    22    1
    25    21    23    1
    26    27    28   ar
    27    28    29   ar
    28    29    24   ar
    29    23    17    1
    30    11     3    1
    31    11     7    1
    32     1     2    1
    33    13    15    1
    34    13    16    1
@<TRIPOS>MOLECULE
*****
 31 34 0 0 0
SMALL
GASTEIGER

@<TRIPOS>ATOM
      1 N         143.7056  143.2610  160.5030 N.pl3   1  UNL1       -0.3341
      2 H         144.4594  143.8425  160.2523 H       1  UNL1        0.1466
      3 C         142.9354  142.5322  159.4419 C.2     1  UNL1        0.0457
      4 C         142.1383  143.3024  158.4313 C.2     1  UNL1        0.1096
      5 C         141.3681  142.5736  157.3702 C.2     1  UNL1        0.2410
      6 N         141.3952  141.0747  157.3198 N.2     1  UNL1       -0.0338
      7 C         142.1923  140.3046  158.3304 C.2     1  UNL1        0.3606
      8 N         142.4069  138.8334  158.5298 N.2     1  UNL1       -0.0343
      9 C         143.3097  138.6530  159.7140 C.2     1  UNL1        0.2321
     10 C         143.6530  140.0125  160.2466 C.2     1  UNL1        0.0421
     11 C         142.9625  141.0333  159.3915 C.3     1  UNL1        0.1732
     12 C         142.1113  144.8013  158.4817 C.2     1  UNL1        0.2474
     13 N         142.6432  145.6003  157.3290 N.am    1  UNL1       -0.3252
     14 O         141.5523  145.5013  159.6849 O.2     1  UNL1       -0.2702
     15 H         143.0101  145.1409  156.5393 H       1  UNL1        0.1453
     16 H         142.6254  146.5840  157.3621 H       1  UNL1        0.1453
     17 N         142.5703  142.7893  164.8318 N.pl3   1  UNL1       -0.2903
     18 C         141.5858  143.3635  163.8564 C.3     1  UNL1        0.0941
     19 C         141.9642  143.5207  162.4135 C.3     1  UNL1        0.0438
     20 C         143.3272  143.1037  161.9459 C.3     1  UNL1        0.1052
     21 C         144.3116  142.5296  162.9212 C.3     1  UNL1        0.1982
     22 F         145.6744  142.1126  162.4536 F       1  UNL1       -0.2337
     23 C         143.9331  142.3724  164.3642 C.3     1  UNL1        0.1290
     24 C         141.4347  142.3177  169.1605 C.ar    1  UNL1        0.0877
     25 C         140.3761  142.5869  168.1325 C.ar    1  UNL1        0.0147
     26 C         140.7546  142.7440  166.6896 C.ar    1  UNL1        0.0350
     27 C         142.1918  142.6321  166.2748 C.ar    1  UNL1        0.1318
     28 N         143.2504  142.3630  167.3027 N.ar    1  UNL1       -0.2285
     29 C         142.8719  142.2058  168.7457 C.ar    1  UNL1        0.1105
     30 N         140.6776  142.0033  172.0463 N.1     1  UNL1       -0.1908
     31 C         141.0562  142.1605  170.6034 C.1     1  UNL1        0.1020
@<TRIPOS>BOND
     1    30    31    3
     2    31    24    1
     3    24    25   ar
     4    25    26   ar
     5    26    27   ar
     6    27    17    1
     7    17    18    1
     8    18    19    1
     9    19    20    1
    10    20     1    1
    11     1     3    1
    12     3     4    2
    13     4    12    1
    14    12    13   am
    15    12    14    2
    16     4     5    1
    17     5     6    2
    18     6     7    1
    19     7     8    2
    20     8     9    1
    21     9    10    2
    22    10    11    1
    23    20    21    1
    24    21    22    1
    25    21    23    1
    26    27    28   ar
    27    28    29   ar
    28    29    24   ar
    29    23    17    1
    30    11     3    1
    31    11     7    1
    32     1     2    1
    33    13    15    1
    34    13    16    1
@<TRIPOS>MOLECULE
*****
 31 34 0 0 0
SMALL
GASTEIGER

@<TRIPOS>ATOM
      1 N         142.4358  142.2710  166.8085 N.pl3   1  UNL1       -0.3341
      2 H         143.2707  142.4718  167.2901 H       1  UNL1        0.1466
      3 C         141.3640  141.4580  167.4723 C.2     1  UNL1        0.0457
      4 C         140.9610  140.1338  166.8944 C.2     1  UNL1        0.1096
      5 C         139.8891  139.3209  167.5581 C.2     1  UNL1        0.2410
      6 N         139.2205  139.8323  168.7997 N.2     1  UNL1       -0.0338
      7 C         139.6236  141.1566  169.3774 C.2     1  UNL1        0.3606
      8 N         139.1465  141.9133  170.5815 N.2     1  UNL1       -0.0343
      9 C         139.9235  143.1939  170.6619 C.2     1  UNL1        0.2321
     10 C         140.8807  143.2286  169.5076 C.2     1  UNL1        0.0421
     11 C         140.6953  141.9694  168.7137 C.3     1  UNL1        0.1732
     12 C         141.6296  139.6224  165.6529 C.2     1  UNL1        0.2474
     13 N         140.8181  139.3536  164.4203 N.am    1  UNL1       -0.3252
     14 O         143.1098  139.3798  165.6439 O.2     1  UNL1       -0.2702
     15 H         139.8466  139.5128  164.4262 H       1  UNL1        0.1453
     16 H         141.2570  139.0180  163.6055 H       1  UNL1        0.1453
     17 N         141.8352  143.7916  162.6160 N.pl3   1  UNL1       -0.2903
     18 C         140.6846  143.7705  163.5783 C.3     1  UNL1        0.0941
     19 C         140.8848  143.2636  164.9758 C.3     1  UNL1        0.0438
     20 C         142.2356  142.7778  165.4110 C.3     1  UNL1        0.1052
     21 C         143.3862  142.7989  164.4488 C.3     1  UNL1        0.1982
     22 F         144.7368  142.3132  164.8841 F       1  UNL1       -0.2337
     23 C         143.1859  143.3059  163.0513 C.3     1  UNL1        0.1290
     24 C         141.2343  145.3123  158.4236 C.ar    1  UNL1        0.0877
     25 C         140.2879  145.7220  159.5129 C.ar    1  UNL1        0.0147
     26 C         140.4882  145.2151  160.9104 C.ar    1  UNL1        0.0350
     27 C         141.6349  144.2985  161.2185 C.ar    1  UNL1        0.1318
     28 N         142.5813  143.8888  160.1293 N.ar    1  UNL1       -0.2285
     29 C         142.3810  144.3957  158.7318 C.ar    1  UNL1        0.1105
     30 N         140.8336  146.3261  155.6287 N.1     1  UNL1       -0.1908
     31 C         141.0339  145.8192  157.0262 C.1     1  UNL1        0.1020
@<TRIPOS>BOND
     1    30    31    3
     2    31    24    1
     3    24    25   ar
     4    25    26   ar
     5    26    27   ar
     6    27    17    1
     7    17    18    1
     8    18    19    1
     9    19    20    1
    10    20     1    1
    11     1     3    1
    12     3     4    2
    13     4    12    1
    14    12    13   am
    15    12    14    2
    16     4     5    1
    17     5     6    2
    18     6     7    1
    19     7     8    2
    20     8     9    1
    21     9    10    2
    22    10    11    1
    23    20    21    1
    24    21    22    1
    25    21    23    1
    26    27    28   ar
    27    28    29   ar
    28    29    24   ar
    29    23    17    1
    30    11     3    1
    31    11     7    1
    32     1     2    1
    33    13    15    1
    34    13    16    1
