@<TRIPOS>MOLECULE
*****
 36 41 0 0 0
SMALL
GASTEIGER

@<TRIPOS>ATOM
      1 C         142.2035  144.5128  161.8744 C.ar    1  UNL1        0.1533
      2 C         141.2704  144.8205  160.7408 C.ar    1  UNL1        0.0527
      3 C         141.5295  144.2469  159.3793 C.ar    1  UNL1        0.0511
      4 C         142.7217  143.3657  159.1512 C.ar    1  UNL1        0.0160
      5 C         143.6548  143.0580  160.2846 C.ar    1  UNL1        0.0190
      6 C         143.3957  143.6315  161.6462 C.ar    1  UNL1        0.0850
      7 N         140.5964  144.5546  158.2459 N.pl3   1  UNL1       -0.3028
      8 C         140.5734  145.9290  157.6455 C.3     1  UNL1        0.1219
      9 C         139.6402  146.2368  156.5121 C.3     1  UNL1        0.1505
     10 C         138.7071  146.5446  155.3787 C.3     1  UNL1        0.1003
     11 N         137.7971  145.4779  154.8457 N.3     1  UNL1       -0.2933
     12 C         137.8202  144.1036  155.4461 C.3     1  UNL1        0.1003
     13 C         138.7533  143.7958  156.5795 C.3     1  UNL1        0.1505
     14 C         139.6864  143.4880  157.7129 C.3     1  UNL1        0.1219
     15 O         139.6633  144.8624  157.1125 O.3     1  UNL1       -0.3524
     16 H         138.0176  145.3705  153.8556 H       1  UNL1        0.1234
     17 C         140.7008  144.7084  163.9847 C.3     1  UNL1        0.2525
     18 O         141.9443  145.0864  163.2359 O.3     1  UNL1       -0.4701
     19 N         144.3288  143.3238  162.7796 N.pl3   1  UNL1       -0.2802
     20 H         145.0577  143.9477  163.0004 H       1  UNL1        0.1552
     21 C         144.1514  142.0656  163.5767 C.ar    1  UNL1        0.2208
     22 N         145.0765  140.9047  163.3613 N.ar    1  UNL1       -0.2111
     23 C         144.8992  139.6464  164.1583 C.ar    1  UNL1        0.1147
     24 C         143.7967  139.5491  165.1708 C.ar    1  UNL1        0.0960
     25 CL        143.6194  138.2908  165.9679 Cl      1  UNL1       -0.0790
     26 C         142.8716  140.7101  165.3863 C.ar    1  UNL1        0.1138
     27 N         143.0490  141.9683  164.5892 N.ar    1  UNL1       -0.2111
     28 C         141.7691  140.6128  166.3988 C.ar    1  UNL1        0.1031
     29 C         141.7296  141.3058  167.7285 C.ar    1  UNL1        0.1196
     30 N         140.4487  140.9267  168.4108 N.ar    1  UNL1       -0.2248
     31 C         139.6966  139.9993  167.5028 C.ar    1  UNL1        0.1479
     32 C         138.3741  139.3065  167.6476 C.ar    1  UNL1        0.0374
     33 C         137.8678  138.4197  166.5490 C.ar    1  UNL1        0.0046
     34 C         138.6839  138.2257  165.3054 C.ar    1  UNL1        0.0191
     35 C         140.0063  138.9186  165.1606 C.ar    1  UNL1        0.0815
     36 N         140.5127  139.8053  166.2593 N.ar    1  UNL1       -0.2874
@<TRIPOS>BOND
     1    17    18    1
     2    18     1    1
     3     1     2   ar
     4     2     3   ar
     5     3     7    1
     6     7     8    1
     7     8     9    1
     8     9    10    1
     9    10    11    1
    10    11    12    1
    11    12    13    1
    12    13    14    1
    13    13    15    1
    14     3     4   ar
    15     4     5   ar
    16     5     6   ar
    17     6    19    1
    18    19    21    1
    19    21    22   ar
    20    22    23   ar
    21    23    24   ar
    22    24    25    1
    23    24    26   ar
    24    26    28    1
    25    28    29   ar
    26    29    30   ar
    27    30    31   ar
    28    31    32   ar
    29    32    33   ar
    30    33    34   ar
    31    34    35   ar
    32    35    36   ar
    33    26    27   ar
    34     6     1   ar
    35    27    21   ar
    36    14     7    1
    37    36    28   ar
    38    15     9    1
    39    36    31   ar
    40    11    16    1
    41    19    20    1
@<TRIPOS>MOLECULE
*****
 36 41 0 0 0
SMALL
GASTEIGER

@<TRIPOS>ATOM
      1 C         137.8838  140.5361  163.5602 C.ar    1  UNL1        0.1533
      2 C         138.5435  140.7348  164.8927 C.ar    1  UNL1        0.0527
      3 C         139.3152  139.6131  165.5222 C.ar    1  UNL1        0.0511
      4 C         139.4271  138.2927  164.8193 C.ar    1  UNL1        0.0160
      5 C         138.7674  138.0940  163.4869 C.ar    1  UNL1        0.0190
      6 C         137.9957  139.2158  162.8573 C.ar    1  UNL1        0.0850
      7 N         139.9748  139.8118  166.8546 N.pl3   1  UNL1       -0.3028
      8 C         139.1408  139.9047  168.0979 C.3     1  UNL1        0.1219
      9 C         139.8004  140.1035  169.4304 C.3     1  UNL1        0.1505
     10 C         140.4600  140.3022  170.7629 C.3     1  UNL1        0.1003
     11 N         141.9537  140.4080  170.8520 N.3     1  UNL1       -0.2933
     12 C         142.7876  140.3150  169.6086 C.3     1  UNL1        0.1003
     13 C         142.1280  140.1163  168.2762 C.3     1  UNL1        0.1505
     14 C         141.4684  139.9176  166.9437 C.3     1  UNL1        0.1219
     15 O         140.6344  140.0105  168.1870 O.3     1  UNL1       -0.3524
     16 H         142.2653  139.6605  171.4721 H       1  UNL1        0.1234
     17 C         137.8316  142.8762  162.4326 C.3     1  UNL1        0.2525
     18 O         137.1122  141.6579  162.9307 O.3     1  UNL1       -0.4701
     19 N         137.3361  139.0170  161.5249 N.pl3   1  UNL1       -0.2802
     20 H         136.4153  138.6719  161.4781 H       1  UNL1        0.1552
     21 C         138.0793  139.3442  160.2637 C.ar    1  UNL1        0.2208
     22 N         139.4330  138.7479  160.0149 N.ar    1  UNL1       -0.2111
     23 C         140.1763  139.0750  158.7537 C.ar    1  UNL1        0.1147
     24 C         139.5658  139.9985  157.7414 C.ar    1  UNL1        0.0960
     25 CL        140.3091  140.3256  156.4803 Cl      1  UNL1       -0.0790
     26 C         138.2120  140.5948  157.9904 C.ar    1  UNL1        0.1138
     27 N         137.4689  140.2676  159.2515 N.ar    1  UNL1       -0.2111
     28 C         137.6016  141.5182  156.9781 C.ar    1  UNL1        0.1031
     29 C         136.3693  141.2467  156.1671 C.ar    1  UNL1        0.1196
     30 N         136.1224  142.4360  155.2869 N.ar    1  UNL1       -0.2248
     31 C         137.2021  143.4424  155.5539 C.ar    1  UNL1        0.1479
     32 C         137.4710  144.8020  154.9803 C.ar    1  UNL1        0.0374
     33 C         138.6540  145.5945  155.4519 C.ar    1  UNL1        0.0046
     34 C         139.5682  145.0272  156.4972 C.ar    1  UNL1        0.0191
     35 C         139.2994  143.6676  157.0708 C.ar    1  UNL1        0.0815
     36 N         138.1163  142.8752  156.5991 N.ar    1  UNL1       -0.2874
@<TRIPOS>BOND
     1    17    18    1
     2    18     1    1
     3     1     2   ar
     4     2     3   ar
     5     3     7    1
     6     7     8    1
     7     8     9    1
     8     9    10    1
     9    10    11    1
    10    11    12    1
    11    12    13    1
    12    13    14    1
    13    13    15    1
    14     3     4   ar
    15     4     5   ar
    16     5     6   ar
    17     6    19    1
    18    19    21    1
    19    21    22   ar
    20    22    23   ar
    21    23    24   ar
    22    24    25    1
    23    24    26   ar
    24    26    28    1
    25    28    29   ar
    26    29    30   ar
    27    30    31   ar
    28    31    32   ar
    29    32    33   ar
    30    33    34   ar
    31    34    35   ar
    32    35    36   ar
    33    26    27   ar
    34     6     1   ar
    35    27    21   ar
    36    14     7    1
    37    36    28   ar
    38    15     9    1
    39    36    31   ar
    40    11    16    1
    41    19    20    1
@<TRIPOS>MOLECULE
*****
 36 41 0 0 0
SMALL
GASTEIGER

@<TRIPOS>ATOM
      1 C         138.0671  140.3434  163.9263 C.ar    1  UNL1        0.1533
      2 C         138.7101  140.6015  165.2568 C.ar    1  UNL1        0.0527
      3 C         139.5739  139.5506  165.8888 C.ar    1  UNL1        0.0511
      4 C         139.7948  138.2416  165.1904 C.ar    1  UNL1        0.0160
      5 C         139.1518  137.9835  163.8600 C.ar    1  UNL1        0.0190
      6 C         138.2879  139.0344  163.2279 C.ar    1  UNL1        0.0850
      7 N         140.2169  139.8088  167.2191 N.pl3   1  UNL1       -0.3028
      8 C         141.7116  139.8673  167.3309 C.3     1  UNL1        0.1219
      9 C         142.3546  140.1255  168.6614 C.3     1  UNL1        0.1505
     10 C         142.9976  140.3837  169.9917 C.3     1  UNL1        0.1003
     11 N         142.1459  140.5833  171.2103 N.3     1  UNL1       -0.2933
     12 C         140.6513  140.5248  171.0983 C.3     1  UNL1        0.1003
     13 C         140.0082  140.2666  169.7680 C.3     1  UNL1        0.1505
     14 C         139.3652  140.0084  168.4376 C.3     1  UNL1        0.1219
     15 O         140.8599  140.0670  168.5495 O.3     1  UNL1       -0.3524
     16 H         142.3774  141.5038  171.5837 H       1  UNL1        0.1234
     17 C         137.7588  142.7622  163.0296 C.3     1  UNL1        0.2525
     18 O         137.2033  141.3943  163.2943 O.3     1  UNL1       -0.4701
     19 N         137.6450  138.7762  161.8975 N.pl3   1  UNL1       -0.2802
     20 H         136.7998  138.2738  161.8485 H       1  UNL1        0.1552
     21 C         138.2898  139.2835  160.6418 C.ar    1  UNL1        0.2208
     22 N         137.8817  140.6098  160.0723 N.ar    1  UNL1       -0.2111
     23 C         138.5265  141.1172  158.8165 C.ar    1  UNL1        0.1147
     24 C         139.5793  140.2982  158.1303 C.ar    1  UNL1        0.0960
     25 CL        140.2241  140.8055  156.8746 Cl      1  UNL1       -0.0790
     26 C         139.9874  138.9718  158.6999 C.ar    1  UNL1        0.1138
     27 N         139.3426  138.4646  159.9556 N.ar    1  UNL1       -0.2111
     28 C         141.0402  138.1528  158.0137 C.ar    1  UNL1        0.1031
     29 C         142.4428  137.9347  158.4987 C.ar    1  UNL1        0.1196
     30 N         143.1446  137.0552  157.5068 N.ar    1  UNL1       -0.2248
     31 C         142.1759  136.7299  156.4087 C.ar    1  UNL1        0.1479
     32 C         142.3101  135.9036  155.1641 C.ar    1  UNL1        0.0374
     33 C         141.1436  135.7557  154.2328 C.ar    1  UNL1        0.0046
     34 C         139.8430  136.4341  154.5461 C.ar    1  UNL1        0.0191
     35 C         139.7088  137.2604  155.7907 C.ar    1  UNL1        0.0815
     36 N         140.8753  137.4083  156.7221 N.ar    1  UNL1       -0.2874
@<TRIPOS>BOND
     1    17    18    1
     2    18     1    1
     3     1     2   ar
     4     2     3   ar
     5     3     7    1
     6     7     8    1
     7     8     9    1
     8     9    10    1
     9    10    11    1
    10    11    12    1
    11    12    13    1
    12    13    14    1
    13    13    15    1
    14     3     4   ar
    15     4     5   ar
    16     5     6   ar
    17     6    19    1
    18    19    21    1
    19    21    22   ar
    20    22    23   ar
    21    23    24   ar
    22    24    25    1
    23    24    26   ar
    24    26    28    1
    25    28    29   ar
    26    29    30   ar
    27    30    31   ar
    28    31    32   ar
    29    32    33   ar
    30    33    34   ar
    31    34    35   ar
    32    35    36   ar
    33    26    27   ar
    34     6     1   ar
    35    27    21   ar
    36    14     7    1
    37    36    28   ar
    38    15     9    1
    39    36    31   ar
    40    11    16    1
    41    19    20    1
@<TRIPOS>MOLECULE
*****
 36 41 0 0 0
SMALL
GASTEIGER

@<TRIPOS>ATOM
      1 C         142.2430  144.4124  161.7713 C.ar    1  UNL1        0.1533
      2 C         141.3102  144.7705  160.6524 C.ar    1  UNL1        0.0527
      3 C         141.5458  144.2240  159.2755 C.ar    1  UNL1        0.0511
      4 C         142.7142  143.3193  159.0175 C.ar    1  UNL1        0.0160
      5 C         143.6469  142.9612  160.1363 C.ar    1  UNL1        0.0190
      6 C         143.4113  143.5077  161.5132 C.ar    1  UNL1        0.0850
      7 N         140.6131  144.5821  158.1567 N.pl3   1  UNL1       -0.3028
      8 C         139.6861  143.5465  157.5926 C.3     1  UNL1        0.1219
      9 C         138.7533  143.9046  156.4737 C.3     1  UNL1        0.1505
     10 C         137.8205  144.2627  155.3550 C.3     1  UNL1        0.1003
     11 N         137.8148  145.6565  154.8003 N.3     1  UNL1       -0.2933
     12 C         138.7418  146.6919  155.3645 C.3     1  UNL1        0.1003
     13 C         139.6746  146.3338  156.4833 C.3     1  UNL1        0.1505
     14 C         140.6073  145.9758  157.6021 C.3     1  UNL1        0.1219
     15 O         139.6803  144.9402  157.0379 O.3     1  UNL1       -0.3524
     16 H         136.8671  146.0154  154.9158 H       1  UNL1        0.1234
     17 C         140.6833  144.7502  163.8215 C.3     1  UNL1        0.2525
     18 O         142.0073  144.9589  163.1481 O.3     1  UNL1       -0.4701
     19 N         144.3440  143.1496  162.6320 N.pl3   1  UNL1       -0.2802
     20 H         145.1102  143.7319  162.8397 H       1  UNL1        0.1552
     21 C         144.1095  141.9041  163.4344 C.ar    1  UNL1        0.2208
     22 N         145.1469  140.8209  163.4583 N.ar    1  UNL1       -0.2111
     23 C         144.9124  139.5755  164.2607 C.ar    1  UNL1        0.1147
     24 C         143.6406  139.4132  165.0392 C.ar    1  UNL1        0.0960
     25 CL        143.4061  138.1678  165.8417 Cl      1  UNL1       -0.0790
     26 C         142.6032  140.4965  165.0154 C.ar    1  UNL1        0.1138
     27 N         142.8377  141.7419  164.2130 N.ar    1  UNL1       -0.2111
     28 C         141.3314  140.3343  165.7939 C.ar    1  UNL1        0.1031
     29 C         139.9629  140.1303  165.2146 C.ar    1  UNL1        0.1196
     30 N         138.9905  140.0175  166.3512 N.ar    1  UNL1       -0.2248
     31 C         139.7581  140.1517  167.6329 C.ar    1  UNL1        0.1479
     32 C         139.3265  140.1210  169.0692 C.ar    1  UNL1        0.0374
     33 C         140.3417  140.2860  170.1610 C.ar    1  UNL1        0.0046
     34 C         141.7884  140.4818  169.8166 C.ar    1  UNL1        0.0191
     35 C         142.2200  140.5126  168.3804 C.ar    1  UNL1        0.0815
     36 N         141.2048  140.3475  167.2885 N.ar    1  UNL1       -0.2874
@<TRIPOS>BOND
     1    17    18    1
     2    18     1    1
     3     1     2   ar
     4     2     3   ar
     5     3     7    1
     6     7     8    1
     7     8     9    1
     8     9    10    1
     9    10    11    1
    10    11    12    1
    11    12    13    1
    12    13    14    1
    13    13    15    1
    14     3     4   ar
    15     4     5   ar
    16     5     6   ar
    17     6    19    1
    18    19    21    1
    19    21    22   ar
    20    22    23   ar
    21    23    24   ar
    22    24    25    1
    23    24    26   ar
    24    26    28    1
    25    28    29   ar
    26    29    30   ar
    27    30    31   ar
    28    31    32   ar
    29    32    33   ar
    30    33    34   ar
    31    34    35   ar
    32    35    36   ar
    33    26    27   ar
    34     6     1   ar
    35    27    21   ar
    36    14     7    1
    37    36    28   ar
    38    15     9    1
    39    36    31   ar
    40    11    16    1
    41    19    20    1
@<TRIPOS>MOLECULE
*****
 36 41 0 0 0
SMALL
GASTEIGER

@<TRIPOS>ATOM
      1 C         137.9109  140.4845  163.4271 C.ar    1  UNL1        0.1533
      2 C         138.5518  140.6685  164.7708 C.ar    1  UNL1        0.0527
      3 C         139.2956  139.5328  165.4088 C.ar    1  UNL1        0.0511
      4 C         139.3985  138.2132  164.7032 C.ar    1  UNL1        0.0160
      5 C         138.7576  138.0292  163.3595 C.ar    1  UNL1        0.0190
      6 C         138.0138  139.1648  162.7215 C.ar    1  UNL1        0.0850
      7 N         139.9365  139.7169  166.7525 N.pl3   1  UNL1       -0.3028
      8 C         141.4314  139.7449  166.8728 C.3     1  UNL1        0.1219
      9 C         142.0723  139.9290  168.2165 C.3     1  UNL1        0.1505
     10 C         142.7133  140.1130  169.5601 C.3     1  UNL1        0.1003
     11 N         141.8592  140.2691  170.7834 N.3     1  UNL1       -0.2933
     12 C         140.3644  140.2410  170.6629 C.3     1  UNL1        0.1003
     13 C         139.7235  140.0570  169.3193 C.3     1  UNL1        0.1505
     14 C         139.0825  139.8729  167.9757 C.3     1  UNL1        0.1219
     15 O         140.5774  139.9009  168.0961 O.3     1  UNL1       -0.3524
     16 H         142.1042  141.1668  171.2010 H       1  UNL1        0.1234
     17 C         137.6608  143.0269  162.9543 C.3     1  UNL1        0.2525
     18 O         137.1671  141.6201  162.7891 O.3     1  UNL1       -0.4701
     19 N         137.3730  138.9808  161.3778 N.pl3   1  UNL1       -0.2802
     20 H         136.4615  138.6143  161.3133 H       1  UNL1        0.1552
     21 C         138.1208  139.3550  160.1326 C.ar    1  UNL1        0.2208
     22 N         139.5217  138.8620  159.9223 N.ar    1  UNL1       -0.2111
     23 C         140.2696  139.2362  158.6771 C.ar    1  UNL1        0.1147
     24 C         139.6164  140.1034  157.6420 C.ar    1  UNL1        0.0960
     25 CL        140.3642  140.4776  156.3967 Cl      1  UNL1       -0.0790
     26 C         138.2153  140.5964  157.8523 C.ar    1  UNL1        0.1138
     27 N         137.4676  140.2222  159.0975 N.ar    1  UNL1       -0.2111
     28 C         137.5622  141.4637  156.8172 C.ar    1  UNL1        0.1031
     29 C         137.4510  142.9588  156.8624 C.ar    1  UNL1        0.1196
     30 N         136.7256  143.4071  155.6283 N.ar    1  UNL1       -0.2248
     31 C         136.3886  142.1891  154.8205 C.ar    1  UNL1        0.1479
     32 C         135.6777  142.0185  153.5107 C.ar    1  UNL1        0.0374
     33 C         135.4838  140.6467  152.9357 C.ar    1  UNL1        0.0046
     34 C         136.0009  139.4455  153.6705 C.ar    1  UNL1        0.0191
     35 C         136.7118  139.6161  154.9803 C.ar    1  UNL1        0.0815
     36 N         136.9056  140.9879  155.5552 N.ar    1  UNL1       -0.2874
@<TRIPOS>BOND
     1    17    18    1
     2    18     1    1
     3     1     2   ar
     4     2     3   ar
     5     3     7    1
     6     7     8    1
     7     8     9    1
     8     9    10    1
     9    10    11    1
    10    11    12    1
    11    12    13    1
    12    13    14    1
    13    13    15    1
    14     3     4   ar
    15     4     5   ar
    16     5     6   ar
    17     6    19    1
    18    19    21    1
    19    21    22   ar
    20    22    23   ar
    21    23    24   ar
    22    24    25    1
    23    24    26   ar
    24    26    28    1
    25    28    29   ar
    26    29    30   ar
    27    30    31   ar
    28    31    32   ar
    29    32    33   ar
    30    33    34   ar
    31    34    35   ar
    32    35    36   ar
    33    26    27   ar
    34     6     1   ar
    35    27    21   ar
    36    14     7    1
    37    36    28   ar
    38    15     9    1
    39    36    31   ar
    40    11    16    1
    41    19    20    1
@<TRIPOS>MOLECULE
*****
 36 41 0 0 0
SMALL
GASTEIGER

@<TRIPOS>ATOM
      1 C         141.8632  138.0348  163.3180 C.ar    1  UNL1        0.1533
      2 C         141.3472  138.4067  164.6766 C.ar    1  UNL1        0.0527
      3 C         142.2146  139.1847  165.6212 C.ar    1  UNL1        0.0511
      4 C         143.5979  139.5909  165.2074 C.ar    1  UNL1        0.0160
      5 C         144.1139  139.2191  163.8489 C.ar    1  UNL1        0.0190
      6 C         143.2466  138.4410  162.9042 C.ar    1  UNL1        0.0850
      7 N         141.6985  139.5564  166.9797 N.pl3   1  UNL1       -0.3028
      8 C         142.6327  139.5927  168.1527 C.3     1  UNL1        0.1219
      9 C         142.1167  139.9645  169.5113 C.3     1  UNL1        0.1505
     10 C         141.6007  140.3363  170.8698 C.3     1  UNL1        0.1003
     11 N         140.1504  140.6718  171.0552 N.3     1  UNL1       -0.2933
     12 C         139.2164  140.6355  169.8822 C.3     1  UNL1        0.1003
     13 C         139.7324  140.2637  168.5237 C.3     1  UNL1        0.1505
     14 C         140.2483  139.8919  167.1652 C.3     1  UNL1        0.1219
     15 O         141.1825  139.9282  168.3382 O.3     1  UNL1       -0.3524
     16 H         140.1132  141.6188  171.4321 H       1  UNL1        0.1234
     17 C         139.8922  137.9467  161.6276 C.3     1  UNL1        0.2525
     18 O         140.9958  137.2568  162.3734 O.3     1  UNL1       -0.4701
     19 N         143.7626  138.0693  161.5457 N.pl3   1  UNL1       -0.2802
     20 H         144.4008  137.3260  161.4481 H       1  UNL1        0.1552
     21 C         143.3064  138.8298  160.3361 C.ar    1  UNL1        0.2208
     22 N         143.1467  138.1237  159.0223 N.ar    1  UNL1       -0.2111
     23 C         142.6904  138.8843  157.8127 C.ar    1  UNL1        0.1147
     24 C         142.3939  140.3510  157.9167 C.ar    1  UNL1        0.0960
     25 CL        141.9376  141.1116  156.7070 Cl      1  UNL1       -0.0790
     26 C         142.5535  141.0572  159.2305 C.ar    1  UNL1        0.1138
     27 N         143.0098  140.2966  160.4401 N.ar    1  UNL1       -0.2111
     28 C         142.2569  142.5239  159.3346 C.ar    1  UNL1        0.1031
     29 C         142.8843  143.6107  158.5129 C.ar    1  UNL1        0.1196
     30 N         142.2960  144.9197  158.9491 N.ar    1  UNL1       -0.2248
     31 C         141.3050  144.6420  160.0404 C.ar    1  UNL1        0.1479
     32 C         140.4216  145.5460  160.8479 C.ar    1  UNL1        0.0374
     33 C         139.5140  144.9693  161.8937 C.ar    1  UNL1        0.0046
     34 C         139.4899  143.4886  162.1319 C.ar    1  UNL1        0.0191
     35 C         140.3734  142.5845  161.3244 C.ar    1  UNL1        0.0815
     36 N         141.2809  143.1612  160.2786 N.ar    1  UNL1       -0.2874
@<TRIPOS>BOND
     1    17    18    1
     2    18     1    1
     3     1     2   ar
     4     2     3   ar
     5     3     7    1
     6     7     8    1
     7     8     9    1
     8     9    10    1
     9    10    11    1
    10    11    12    1
    11    12    13    1
    12    13    14    1
    13    13    15    1
    14     3     4   ar
    15     4     5   ar
    16     5     6   ar
    17     6    19    1
    18    19    21    1
    19    21    22   ar
    20    22    23   ar
    21    23    24   ar
    22    24    25    1
    23    24    26   ar
    24    26    28    1
    25    28    29   ar
    26    29    30   ar
    27    30    31   ar
    28    31    32   ar
    29    32    33   ar
    30    33    34   ar
    31    34    35   ar
    32    35    36   ar
    33    26    27   ar
    34     6     1   ar
    35    27    21   ar
    36    14     7    1
    37    36    28   ar
    38    15     9    1
    39    36    31   ar
    40    11    16    1
    41    19    20    1
@<TRIPOS>MOLECULE
*****
 36 41 0 0 0
SMALL
GASTEIGER

@<TRIPOS>ATOM
      1 C         140.5794  138.2593  164.2852 C.ar    1  UNL1        0.1533
      2 C         141.0742  138.9194  165.5380 C.ar    1  UNL1        0.0527
      3 C         140.1505  139.7813  166.3466 C.ar    1  UNL1        0.0511
      4 C         138.7320  139.9831  165.9025 C.ar    1  UNL1        0.0160
      5 C         138.2373  139.3230  164.6497 C.ar    1  UNL1        0.0190
      6 C         139.1610  138.4610  163.8410 C.ar    1  UNL1        0.0850
      7 N         140.6452  140.4413  167.5994 N.pl3   1  UNL1       -0.3028
      8 C         141.5768  141.6138  167.5117 C.3     1  UNL1        0.1219
      9 C         142.0716  142.2739  168.7645 C.3     1  UNL1        0.1505
     10 C         142.5665  142.9341  170.0172 C.3     1  UNL1        0.1003
     11 N         142.1297  142.4217  171.3577 N.3     1  UNL1       -0.2933
     12 C         141.1982  141.2493  171.4453 C.3     1  UNL1        0.1003
     13 C         140.7034  140.5892  170.1926 C.3     1  UNL1        0.1505
     14 C         140.2085  139.9291  168.9399 C.3     1  UNL1        0.1219
     15 O         141.1401  141.1015  168.8521 O.3     1  UNL1       -0.3524
     16 H         141.6715  143.1982  171.8347 H       1  UNL1        0.1234
     17 C         142.6640  138.0141  162.7539 C.3     1  UNL1        0.2525
     18 O         141.5032  137.3974  163.4765 O.3     1  UNL1       -0.4701
     19 N         138.6662  137.8010  162.5882 N.pl3   1  UNL1       -0.2802
     20 H         138.2522  136.9089  162.6324 H       1  UNL1        0.1552
     21 C         138.8023  138.5000  161.2681 C.ar    1  UNL1        0.2208
     22 N         137.7113  139.4090  160.7848 N.ar    1  UNL1       -0.2111
     23 C         137.8474  140.1081  159.4647 C.ar    1  UNL1        0.1147
     24 C         139.0744  139.8982  158.6278 C.ar    1  UNL1        0.0960
     25 CL        139.2105  140.5972  157.3077 Cl      1  UNL1       -0.0790
     26 C         140.1655  138.9892  159.1111 C.ar    1  UNL1        0.1138
     27 N         140.0293  138.2902  160.4312 N.ar    1  UNL1       -0.2111
     28 C         141.3925  138.7793  158.2743 C.ar    1  UNL1        0.1031
     29 C         142.7209  139.4466  158.4743 C.ar    1  UNL1        0.1196
     30 N         143.6559  138.9450  157.4141 N.ar    1  UNL1       -0.2248
     31 C         142.9054  137.9676  156.5588 C.ar    1  UNL1        0.1479
     32 C         143.3150  137.1577  155.3646 C.ar    1  UNL1        0.0374
     33 C         142.3258  136.2454  154.7020 C.ar    1  UNL1        0.0046
     34 C         140.9269  136.1430  155.2336 C.ar    1  UNL1        0.0191
     35 C         140.5173  136.9529  156.4278 C.ar    1  UNL1        0.0815
     36 N         141.5065  137.8652  157.0904 N.ar    1  UNL1       -0.2874
@<TRIPOS>BOND
     1    17    18    1
     2    18     1    1
     3     1     2   ar
     4     2     3   ar
     5     3     7    1
     6     7     8    1
     7     8     9    1
     8     9    10    1
     9    10    11    1
    10    11    12    1
    11    12    13    1
    12    13    14    1
    13    13    15    1
    14     3     4   ar
    15     4     5   ar
    16     5     6   ar
    17     6    19    1
    18    19    21    1
    19    21    22   ar
    20    22    23   ar
    21    23    24   ar
    22    24    25    1
    23    24    26   ar
    24    26    28    1
    25    28    29   ar
    26    29    30   ar
    27    30    31   ar
    28    31    32   ar
    29    32    33   ar
    30    33    34   ar
    31    34    35   ar
    32    35    36   ar
    33    26    27   ar
    34     6     1   ar
    35    27    21   ar
    36    14     7    1
    37    36    28   ar
    38    15     9    1
    39    36    31   ar
    40    11    16    1
    41    19    20    1
@<TRIPOS>MOLECULE
*****
 36 41 0 0 0
SMALL
GASTEIGER

@<TRIPOS>ATOM
      1 C         141.9470  138.0392  163.4137 C.ar    1  UNL1        0.1533
      2 C         141.3988  138.4309  164.7540 C.ar    1  UNL1        0.0527
      3 C         142.2505  139.2056  165.7154 C.ar    1  UNL1        0.0511
      4 C         143.6504  139.5886  165.3367 C.ar    1  UNL1        0.0160
      5 C         144.1987  139.1969  163.9966 C.ar    1  UNL1        0.0190
      6 C         143.3470  138.4222  163.0351 C.ar    1  UNL1        0.0850
      7 N         141.7022  139.5973  167.0555 N.pl3   1  UNL1       -0.3028
      8 C         140.2350  139.8648  167.2164 C.3     1  UNL1        0.1219
      9 C         139.6866  140.2565  168.5566 C.3     1  UNL1        0.1505
     10 C         139.1382  140.6482  169.8967 C.3     1  UNL1        0.1003
     11 N         140.0571  140.7723  171.0759 N.3     1  UNL1       -0.2933
     12 C         141.5242  140.5048  170.9148 C.3     1  UNL1        0.1003
     13 C         142.0726  140.1131  169.5747 C.3     1  UNL1        0.1505
     14 C         142.6210  139.7215  168.2347 C.3     1  UNL1        0.1219
     15 O         141.1538  139.9890  168.3956 O.3     1  UNL1       -0.3524
     16 H         139.7155  140.1235  171.7849 H       1  UNL1        0.1234
     17 C         139.8996  137.9123  161.8194 C.3     1  UNL1        0.2525
     18 O         141.0953  137.2645  162.4523 O.3     1  UNL1       -0.4701
     19 N         143.8953  138.0305  161.6950 N.pl3   1  UNL1       -0.2802
     20 H         144.6040  137.3500  161.6329 H       1  UNL1        0.1552
     21 C         143.3639  138.6757  160.4494 C.ar    1  UNL1        0.2208
     22 N         143.5557  140.1466  160.2263 N.ar    1  UNL1       -0.2111
     23 C         143.0243  140.7918  158.9808 C.ar    1  UNL1        0.1147
     24 C         142.3011  139.9661  157.9584 C.ar    1  UNL1        0.0960
     25 CL        141.7698  140.6113  156.7129 Cl      1  UNL1       -0.0790
     26 C         142.1094  138.4952  158.1815 C.ar    1  UNL1        0.1138
     27 N         142.6407  137.8501  159.4270 N.ar    1  UNL1       -0.2111
     28 C         141.3862  137.6695  157.1591 C.ar    1  UNL1        0.1031
     29 C         139.9359  137.7886  156.7952 C.ar    1  UNL1        0.1196
     30 N         139.6398  136.7725  155.7323 N.ar    1  UNL1       -0.2248
     31 C         140.9071  136.0254  155.4393 C.ar    1  UNL1        0.1479
     32 C         141.2176  134.9119  154.4834 C.ar    1  UNL1        0.0374
     33 C         142.6075  134.3529  154.4094 C.ar    1  UNL1        0.0046
     34 C         143.6869  134.9073  155.2912 C.ar    1  UNL1        0.0191
     35 C         143.3763  136.0207  156.2471 C.ar    1  UNL1        0.0815
     36 N         141.9864  136.5798  156.3211 N.ar    1  UNL1       -0.2874
@<TRIPOS>BOND
     1    17    18    1
     2    18     1    1
     3     1     2   ar
     4     2     3   ar
     5     3     7    1
     6     7     8    1
     7     8     9    1
     8     9    10    1
     9    10    11    1
    10    11    12    1
    11    12    13    1
    12    13    14    1
    13    13    15    1
    14     3     4   ar
    15     4     5   ar
    16     5     6   ar
    17     6    19    1
    18    19    21    1
    19    21    22   ar
    20    22    23   ar
    21    23    24   ar
    22    24    25    1
    23    24    26   ar
    24    26    28    1
    25    28    29   ar
    26    29    30   ar
    27    30    31   ar
    28    31    32   ar
    29    32    33   ar
    30    33    34   ar
    31    34    35   ar
    32    35    36   ar
    33    26    27   ar
    34     6     1   ar
    35    27    21   ar
    36    14     7    1
    37    36    28   ar
    38    15     9    1
    39    36    31   ar
    40    11    16    1
    41    19    20    1
@<TRIPOS>MOLECULE
*****
 36 41 0 0 0
SMALL
GASTEIGER

@<TRIPOS>ATOM
      1 C         138.9452  138.5061  161.0628 C.ar    1  UNL1        0.1533
      2 C         139.7938  137.8742  159.9994 C.ar    1  UNL1        0.0527
      3 C         139.8646  138.4885  158.6328 C.ar    1  UNL1        0.0511
      4 C         139.0868  139.7348  158.3295 C.ar    1  UNL1        0.0160
      5 C         138.2383  140.3667  159.3929 C.ar    1  UNL1        0.0190
      6 C         138.1674  139.7523  160.7595 C.ar    1  UNL1        0.0850
      7 N         140.7131  137.8566  157.5695 N.pl3   1  UNL1       -0.3028
      8 C         142.2083  137.8924  157.6836 C.3     1  UNL1        0.1219
      9 C         143.0570  137.2605  156.6203 C.3     1  UNL1        0.1505
     10 C         143.9057  136.6286  155.5571 C.3     1  UNL1        0.1003
     11 N         143.2590  135.9608  154.3797 N.3     1  UNL1       -0.2933
     12 C         141.7638  135.9251  154.2658 C.3     1  UNL1        0.1003
     13 C         140.9152  136.5570  155.3290 C.3     1  UNL1        0.1505
     14 C         140.0665  137.1889  156.3922 C.3     1  UNL1        0.1219
     15 O         141.5618  137.2247  156.5063 O.3     1  UNL1       -0.3524
     16 H         143.5776  134.9919  154.3791 H       1  UNL1        0.1234
     17 C         140.1358  137.5186  163.1502 C.3     1  UNL1        0.2525
     18 O         138.8744  137.8917  162.4293 O.3     1  UNL1       -0.4701
     19 N         137.3189  140.3843  161.8228 N.pl3   1  UNL1       -0.2802
     20 H         136.3937  140.0774  161.9612 H       1  UNL1        0.1552
     21 C         137.8799  141.4837  162.6752 C.ar    1  UNL1        0.2208
     22 N         137.2423  142.8414  162.6633 N.ar    1  UNL1       -0.2111
     23 C         137.8033  143.9408  163.5157 C.ar    1  UNL1        0.1147
     24 C         139.0018  143.6825  164.3800 C.ar    1  UNL1        0.0960
     25 CL        139.5628  144.7819  165.2324 Cl      1  UNL1       -0.0790
     26 C         139.6394  142.3247  164.3918 C.ar    1  UNL1        0.1138
     27 N         139.0784  141.2254  163.5394 N.ar    1  UNL1       -0.2111
     28 C         140.8379  142.0664  165.2560 C.ar    1  UNL1        0.1031
     29 C         142.2439  142.5011  164.9663 C.ar    1  UNL1        0.1196
     30 N         143.1157  142.0314  166.0929 N.ar    1  UNL1       -0.2248
     31 C         142.2485  141.3064  167.0790 C.ar    1  UNL1        0.1479
     32 C         142.5588  140.6294  168.3810 C.ar    1  UNL1        0.0374
     33 C         141.4613  139.9739  169.1657 C.ar    1  UNL1        0.0046
     34 C         140.0534  139.9956  168.6485 C.ar    1  UNL1        0.0191
     35 C         139.7431  140.6726  167.3465 C.ar    1  UNL1        0.0815
     36 N         140.8406  141.3280  166.5617 N.ar    1  UNL1       -0.2874
@<TRIPOS>BOND
     1    17    18    1
     2    18     1    1
     3     1     2   ar
     4     2     3   ar
     5     3     7    1
     6     7     8    1
     7     8     9    1
     8     9    10    1
     9    10    11    1
    10    11    12    1
    11    12    13    1
    12    13    14    1
    13    13    15    1
    14     3     4   ar
    15     4     5   ar
    16     5     6   ar
    17     6    19    1
    18    19    21    1
    19    21    22   ar
    20    22    23   ar
    21    23    24   ar
    22    24    25    1
    23    24    26   ar
    24    26    28    1
    25    28    29   ar
    26    29    30   ar
    27    30    31   ar
    28    31    32   ar
    29    32    33   ar
    30    33    34   ar
    31    34    35   ar
    32    35    36   ar
    33    26    27   ar
    34     6     1   ar
    35    27    21   ar
    36    14     7    1
    37    36    28   ar
    38    15     9    1
    39    36    31   ar
    40    11    16    1
    41    19    20    1
