@<TRIPOS>MOLECULE
*****
 40 44 0 0 0
SMALL
GASTEIGER

@<TRIPOS>ATOM
      1 C         143.6781  139.7975  157.0064 C.3     1  UNL1        0.1534
      2 C         142.9918  140.2399  158.2647 C.3     1  UNL1        0.0469
      3 C         142.2137  139.0756  158.8022 C.3     1  UNL1        0.0798
      4 C         142.4190  137.9136  157.8761 C.3     1  UNL1        0.1101
      5 N         143.3241  138.3598  156.7662 N.am    1  UNL1       -0.2680
      6 C         143.7928  137.5163  155.6178 C.2     1  UNL1        0.2495
      7 O         144.7010  138.1028  154.5781 O.2     1  UNL1       -0.2699
      8 N         141.3771  139.0737  160.0473 N.3     1  UNL1       -0.2682
      9 C         140.2446  140.0466  160.1914 C.3     1  UNL1        0.0772
     10 C         139.4081  140.0447  161.4365 C.3     1  UNL1        0.0465
     11 C         139.7040  139.0698  162.5373 C.ar    1  UNL1        0.0105
     12 C         140.8365  138.0968  162.3932 C.ar    1  UNL1       -0.0072
     13 C         141.1324  137.1219  163.4941 C.ar    1  UNL1       -0.0030
     14 C         140.2958  137.1199  164.7391 C.ar    1  UNL1        0.0028
     15 C         139.1633  138.0929  164.8833 C.ar    1  UNL1        0.0366
     16 C         138.8674  139.0678  163.7824 C.ar    1  UNL1        0.1343
     17 C         141.6730  138.0988  161.1482 C.3     1  UNL1        0.0989
     18 O         137.7349  140.0408  163.9266 O.3     1  UNL1       -0.4758
     19 C         137.9316  141.3116  164.6989 C.3     1  UNL1        0.2054
     20 C         137.7551  142.6371  164.0194 C.3     1  UNL1        0.0473
     21 C         138.4194  143.8605  164.5778 C.3     1  UNL1        0.0037
     22 C         139.5067  144.8919  164.5141 C.3     1  UNL1        0.0001
     23 C         138.4828  144.9482  165.6088 C.3     1  UNL1        0.0001
     24 C         143.3533  136.0862  155.5092 C.ar    1  UNL1        0.0566
     25 C         142.5343  135.6406  154.3341 C.ar    1  UNL1        0.0044
     26 C         142.0948  134.2106  154.2254 C.ar    1  UNL1        0.0002
     27 C         142.4742  133.2262  155.2918 C.ar    1  UNL1        0.0274
     28 C         143.2932  133.6718  156.4668 C.ar    1  UNL1        0.1361
     29 C         143.7327  135.1019  156.5755 C.ar    1  UNL1        0.0411
     30 C         142.0347  131.7961  155.1831 C.3     1  UNL1        0.0952
     31 N         140.6009  131.4729  154.8835 N.3     1  UNL1       -0.3174
     32 H         140.0148  131.7728  155.6626 H       1  UNL1        0.1192
     33 H         140.4999  130.4667  154.7498 H       1  UNL1        0.1192
     34 O         143.6726  132.6875  157.5331 O.3     1  UNL1       -0.4717
     35 C         145.0502  132.0943  157.5503 C.3     1  UNL1        0.2525
     36 C         146.9301  141.2603  155.2643 C.3     1  UNL1        0.1107
     37 N         146.0452  140.4137  156.1304 N.am    1  UNL1       -0.3013
     38 C         144.5630  140.6442  156.1403 C.2     1  UNL1        0.2407
     39 O         143.9657  141.7213  155.2841 O.2     1  UNL1       -0.2733
     40 H         146.4372  139.7067  156.6923 H       1  UNL1        0.1495
@<TRIPOS>BOND
     1    36    37    1
     2    37    38   am
     3    38    39    2
     4     1    38    1
     5     1     2    1
     6     2     3    1
     7     3     8    1
     8     8     9    1
     9     9    10    1
    10    10    11    1
    11    11    12   ar
    12    12    13   ar
    13    13    14   ar
    14    14    15   ar
    15    15    16   ar
    16    16    18    1
    17    18    19    1
    18    19    20    1
    19    20    21    1
    20    21    22    1
    21    22    23    1
    22    12    17    1
    23     3     4    1
    24     4     5    1
    25     5     6   am
    26     6     7    2
    27     6    24    1
    28    24    25   ar
    29    25    26   ar
    30    26    27   ar
    31    27    30    1
    32    30    31    1
    33    27    28   ar
    34    28    34    1
    35    34    35    1
    36    28    29   ar
    37     5     1    1
    38    29    24   ar
    39    17     8    1
    40    16    11   ar
    41    23    21    1
    42    37    40    1
    43    31    32    1
    44    31    33    1
@<TRIPOS>MOLECULE
*****
 40 44 0 0 0
SMALL
GASTEIGER

@<TRIPOS>ATOM
      1 C         143.8482  139.7504  157.3814 C.3     1  UNL1        0.1534
      2 C         143.5430  140.0712  158.8145 C.3     1  UNL1        0.0469
      3 C         142.8163  138.9003  159.4071 C.3     1  UNL1        0.0798
      4 C         142.6723  137.8559  158.3401 C.3     1  UNL1        0.1101
      5 N         143.3100  138.3812  157.0882 N.am    1  UNL1       -0.2680
      6 C         143.3948  137.6634  155.7738 C.2     1  UNL1        0.2495
      7 O         144.0665  138.3185  154.6034 O.2     1  UNL1       -0.2699
      8 N         142.3205  138.7929  160.8187 N.3     1  UNL1       -0.2682
      9 C         140.9407  138.2718  161.0915 C.3     1  UNL1        0.0772
     10 C         140.4450  138.1644  162.5031 C.3     1  UNL1        0.0465
     11 C         141.3292  138.5780  163.6420 C.ar    1  UNL1        0.0105
     12 C         142.7091  139.0990  163.3693 C.ar    1  UNL1       -0.0072
     13 C         143.5933  139.5127  164.5082 C.ar    1  UNL1       -0.0030
     14 C         143.0976  139.4052  165.9198 C.ar    1  UNL1        0.0028
     15 C         141.7177  138.8841  166.1926 C.ar    1  UNL1        0.0366
     16 C         140.8335  138.4705  165.0537 C.ar    1  UNL1        0.1343
     17 C         143.2047  139.2065  161.9576 C.3     1  UNL1        0.0989
     18 O         139.4536  137.9494  165.3264 O.3     1  UNL1       -0.4758
     19 C         138.3398  138.9040  165.6399 C.3     1  UNL1        0.2054
     20 C         138.4890  140.3618  165.3196 C.3     1  UNL1        0.0473
     21 C         137.9836  140.8981  164.0131 C.3     1  UNL1        0.0037
     22 C         137.7333  140.7191  162.5451 C.3     1  UNL1        0.0001
     23 C         137.3587  142.0061  163.2183 C.3     1  UNL1        0.0001
     24 C         142.8079  136.2906  155.6297 C.ar    1  UNL1        0.0566
     25 C         141.8210  136.0078  154.5360 C.ar    1  UNL1        0.0044
     26 C         141.2341  134.6350  154.3919 C.ar    1  UNL1        0.0002
     27 C         141.6340  133.5449  155.3416 C.ar    1  UNL1        0.0274
     28 C         142.6208  133.8276  156.4353 C.ar    1  UNL1        0.1361
     29 C         143.2077  135.2005  156.5794 C.ar    1  UNL1        0.0411
     30 C         141.0470  132.1720  155.1975 C.3     1  UNL1        0.0952
     31 N         141.9454  130.9711  155.1722 N.3     1  UNL1       -0.3174
     32 H         142.5251  130.9977  154.3334 H       1  UNL1        0.1192
     33 H         141.3790  130.1228  155.1673 H       1  UNL1        0.1192
     34 O         143.0206  132.7376  157.3849 O.3     1  UNL1       -0.4717
     35 C         144.4605  132.3331  157.4989 C.3     1  UNL1        0.2525
     36 C         146.7234  141.2776  155.1119 C.3     1  UNL1        0.1107
     37 N         146.0061  140.3859  156.0816 N.am    1  UNL1       -0.3013
     38 C         144.5655  140.6421  156.4117 C.2     1  UNL1        0.2407
     39 O         143.8421  141.7900  155.7722 O.2     1  UNL1       -0.2733
     40 H         146.4808  139.6324  156.5014 H       1  UNL1        0.1495
@<TRIPOS>BOND
     1    36    37    1
     2    37    38   am
     3    38    39    2
     4     1    38    1
     5     1     2    1
     6     2     3    1
     7     3     8    1
     8     8     9    1
     9     9    10    1
    10    10    11    1
    11    11    12   ar
    12    12    13   ar
    13    13    14   ar
    14    14    15   ar
    15    15    16   ar
    16    16    18    1
    17    18    19    1
    18    19    20    1
    19    20    21    1
    20    21    22    1
    21    22    23    1
    22    12    17    1
    23     3     4    1
    24     4     5    1
    25     5     6   am
    26     6     7    2
    27     6    24    1
    28    24    25   ar
    29    25    26   ar
    30    26    27   ar
    31    27    30    1
    32    30    31    1
    33    27    28   ar
    34    28    34    1
    35    34    35    1
    36    28    29   ar
    37     5     1    1
    38    29    24   ar
    39    17     8    1
    40    16    11   ar
    41    23    21    1
    42    37    40    1
    43    31    32    1
    44    31    33    1
@<TRIPOS>MOLECULE
*****
 40 44 0 0 0
SMALL
GASTEIGER

@<TRIPOS>ATOM
      1 C         143.1314  139.3624  156.8902 C.3     1  UNL1        0.1534
      2 C         142.9130  139.7574  158.3207 C.3     1  UNL1        0.0469
      3 C         142.5921  138.5168  159.1004 C.3     1  UNL1        0.0798
      4 C         142.6122  137.3550  158.1518 C.3     1  UNL1        0.1101
      5 N         142.9455  137.8776  156.7858 N.am    1  UNL1       -0.2680
      6 C         143.0708  137.0591  155.5350 C.2     1  UNL1        0.2495
      7 O         143.4114  137.7243  154.2345 O.2     1  UNL1       -0.2699
      8 N         142.3021  138.4497  160.5706 N.3     1  UNL1       -0.2682
      9 C         143.4161  138.6064  161.5627 C.3     1  UNL1        0.0772
     10 C         143.1260  138.5394  163.0328 C.3     1  UNL1        0.0465
     11 C         141.7219  138.3156  163.5108 C.ar    1  UNL1        0.0105
     12 C         140.6079  138.1589  162.5187 C.ar    1  UNL1       -0.0072
     13 C         139.2038  137.9351  162.9967 C.ar    1  UNL1       -0.0030
     14 C         138.9137  137.8681  164.4668 C.ar    1  UNL1        0.0028
     15 C         140.0278  138.0248  165.4590 C.ar    1  UNL1        0.0366
     16 C         141.4318  138.2486  164.9810 C.ar    1  UNL1        0.1343
     17 C         140.8980  138.2259  161.0486 C.3     1  UNL1        0.0989
     18 O         142.5459  138.4053  165.9732 O.3     1  UNL1       -0.4758
     19 C         142.6695  139.6712  166.7684 C.3     1  UNL1        0.2054
     20 C         142.3242  139.6768  168.2280 C.3     1  UNL1        0.0473
     21 C         140.9365  140.0371  168.6691 C.3     1  UNL1        0.0037
     22 C         140.0150  140.6780  169.6641 C.3     1  UNL1        0.0001
     23 C         139.4546  140.0204  168.4379 C.3     1  UNL1        0.0001
     24 C         142.8556  135.5755  155.5849 C.ar    1  UNL1        0.0566
     25 C         141.5229  134.9980  155.2100 C.ar    1  UNL1        0.0044
     26 C         141.3077  133.5144  155.2598 C.ar    1  UNL1        0.0002
     27 C         142.4251  132.6082  155.6845 C.ar    1  UNL1        0.0274
     28 C         143.7577  133.1857  156.0594 C.ar    1  UNL1        0.1361
     29 C         143.9730  134.6694  156.0096 C.ar    1  UNL1        0.0411
     30 C         142.2098  131.1245  155.7343 C.3     1  UNL1        0.0952
     31 N         143.2675  130.1954  155.2167 N.3     1  UNL1       -0.3174
     32 H         143.3659  130.3199  154.2091 H       1  UNL1        0.1192
     33 H         143.0002  129.2314  155.4157 H       1  UNL1        0.1192
     34 O         144.8750  132.2796  156.4841 O.3     1  UNL1       -0.4717
     35 C         145.2598  132.1907  157.9312 C.3     1  UNL1        0.2525
     36 C         145.1781  141.1562  154.0018 C.3     1  UNL1        0.1107
     37 N         144.8342  140.2292  155.1298 N.am    1  UNL1       -0.3013
     38 C         143.4754  140.2894  155.7622 C.2     1  UNL1        0.2407
     39 O         142.4605  141.2765  155.2667 O.2     1  UNL1       -0.2733
     40 H         145.5003  139.5813  155.4550 H       1  UNL1        0.1495
@<TRIPOS>BOND
     1    36    37    1
     2    37    38   am
     3    38    39    2
     4     1    38    1
     5     1     2    1
     6     2     3    1
     7     3     8    1
     8     8     9    1
     9     9    10    1
    10    10    11    1
    11    11    12   ar
    12    12    13   ar
    13    13    14   ar
    14    14    15   ar
    15    15    16   ar
    16    16    18    1
    17    18    19    1
    18    19    20    1
    19    20    21    1
    20    21    22    1
    21    22    23    1
    22    12    17    1
    23     3     4    1
    24     4     5    1
    25     5     6   am
    26     6     7    2
    27     6    24    1
    28    24    25   ar
    29    25    26   ar
    30    26    27   ar
    31    27    30    1
    32    30    31    1
    33    27    28   ar
    34    28    34    1
    35    34    35    1
    36    28    29   ar
    37     5     1    1
    38    29    24   ar
    39    17     8    1
    40    16    11   ar
    41    23    21    1
    42    37    40    1
    43    31    32    1
    44    31    33    1
@<TRIPOS>MOLECULE
*****
 40 44 0 0 0
SMALL
GASTEIGER

@<TRIPOS>ATOM
      1 C         143.0628  139.1321  156.6333 C.3     1  UNL1        0.1534
      2 C         142.8735  139.5475  158.0621 C.3     1  UNL1        0.0469
      3 C         142.5844  138.3162  158.8685 C.3     1  UNL1        0.0798
      4 C         142.5951  137.1397  157.9380 C.3     1  UNL1        0.1101
      5 N         142.8907  137.6439  156.5566 N.am    1  UNL1       -0.2680
      6 C         142.9959  136.8070  155.3162 C.2     1  UNL1        0.2495
      7 O         143.2988  137.4548  153.9977 O.2     1  UNL1       -0.2699
      8 N         142.3295  138.2695  160.3460 N.3     1  UNL1       -0.2682
      9 C         143.4764  138.3621  161.3082 C.3     1  UNL1        0.0772
     10 C         143.2214  138.3155  162.7856 C.3     1  UNL1        0.0465
     11 C         141.8195  138.1763  163.3008 C.ar    1  UNL1        0.0105
     12 C         140.6726  138.0837  162.3385 C.ar    1  UNL1       -0.0072
     13 C         139.2707  137.9445  162.8536 C.ar    1  UNL1       -0.0030
     14 C         139.0157  137.8978  164.3310 C.ar    1  UNL1        0.0028
     15 C         140.1626  137.9904  165.2934 C.ar    1  UNL1        0.0366
     16 C         141.5645  138.1296  164.7783 C.ar    1  UNL1        0.1343
     17 C         140.9276  138.1303  160.8611 C.3     1  UNL1        0.0989
     18 O         142.7114  138.2222  165.7405 O.3     1  UNL1       -0.4758
     19 C         143.0167  139.5239  166.4205 C.3     1  UNL1        0.2054
     20 C         142.9395  140.8087  165.6503 C.3     1  UNL1        0.0473
     21 C         144.1260  141.2856  164.8663 C.3     1  UNL1        0.0037
     22 C         144.9921  142.4068  164.3737 C.3     1  UNL1        0.0001
     23 C         145.3151  140.9903  164.0009 C.3     1  UNL1        0.0001
     24 C         142.7982  135.3221  155.3944 C.ar    1  UNL1        0.0566
     25 C         141.4826  134.7190  155.0002 C.ar    1  UNL1        0.0044
     26 C         141.2848  133.2341  155.0784 C.ar    1  UNL1        0.0002
     27 C         142.4027  132.3525  155.5507 C.ar    1  UNL1        0.0274
     28 C         143.7183  132.9556  155.9449 C.ar    1  UNL1        0.1361
     29 C         143.9160  134.4405  155.8668 C.ar    1  UNL1        0.0411
     30 C         142.2049  130.8675  155.6289 C.3     1  UNL1        0.0952
     31 N         143.3448  129.9419  155.3226 N.3     1  UNL1       -0.3174
     32 H         143.5983  130.0288  154.3384 H       1  UNL1        0.1192
     33 H         143.0644  128.9809  155.5179 H       1  UNL1        0.1192
     34 O         144.8360  132.0740  156.4172 O.3     1  UNL1       -0.4717
     35 C         145.2771  132.1248  157.8500 C.3     1  UNL1        0.2525
     36 C         145.0479  140.9594  153.7229 C.3     1  UNL1        0.1107
     37 N         144.7405  140.0470  154.8731 N.am    1  UNL1       -0.3013
     38 C         143.3702  140.0445  155.4831 C.2     1  UNL1        0.2407
     39 O         142.3071  140.9546  154.9429 O.2     1  UNL1       -0.2733
     40 H         145.4382  139.4497  155.2277 H       1  UNL1        0.1495
@<TRIPOS>BOND
     1    36    37    1
     2    37    38   am
     3    38    39    2
     4     1    38    1
     5     1     2    1
     6     2     3    1
     7     3     8    1
     8     8     9    1
     9     9    10    1
    10    10    11    1
    11    11    12   ar
    12    12    13   ar
    13    13    14   ar
    14    14    15   ar
    15    15    16   ar
    16    16    18    1
    17    18    19    1
    18    19    20    1
    19    20    21    1
    20    21    22    1
    21    22    23    1
    22    12    17    1
    23     3     4    1
    24     4     5    1
    25     5     6   am
    26     6     7    2
    27     6    24    1
    28    24    25   ar
    29    25    26   ar
    30    26    27   ar
    31    27    30    1
    32    30    31    1
    33    27    28   ar
    34    28    34    1
    35    34    35    1
    36    28    29   ar
    37     5     1    1
    38    29    24   ar
    39    17     8    1
    40    16    11   ar
    41    23    21    1
    42    37    40    1
    43    31    32    1
    44    31    33    1
@<TRIPOS>MOLECULE
*****
 40 44 0 0 0
SMALL
GASTEIGER

@<TRIPOS>ATOM
      1 C         143.6042  140.1568  157.0988 C.3     1  UNL1        0.1534
      2 C         142.8954  140.6735  158.3156 C.3     1  UNL1        0.0469
      3 C         141.9976  139.5857  158.8260 C.3     1  UNL1        0.0798
      4 C         142.1514  138.3966  157.9246 C.3     1  UNL1        0.1101
      5 N         143.1444  138.7496  156.8572 N.am    1  UNL1       -0.2680
      6 C         143.5979  137.8528  155.7436 C.2     1  UNL1        0.2495
      7 O         144.6023  138.3464  154.7448 O.2     1  UNL1       -0.2699
      8 N         141.1029  139.6718  160.0269 N.3     1  UNL1       -0.2682
      9 C         141.0562  138.5400  161.0101 C.3     1  UNL1        0.0772
     10 C         140.1616  138.6261  162.2110 C.3     1  UNL1        0.0465
     11 C         139.3136  139.8441  162.4287 C.ar    1  UNL1        0.0105
     12 C         139.3603  140.9760  161.4455 C.ar    1  UNL1       -0.0072
     13 C         138.5123  142.1940  161.6632 C.ar    1  UNL1       -0.0030
     14 C         137.6176  142.2802  162.8640 C.ar    1  UNL1        0.0028
     15 C         137.5709  141.1483  163.8473 C.ar    1  UNL1        0.0366
     16 C         138.4189  139.9303  163.6296 C.ar    1  UNL1        0.1343
     17 C         140.2549  140.8898  160.2446 C.3     1  UNL1        0.0989
     18 O         138.3723  138.7984  164.6128 O.3     1  UNL1       -0.4758
     19 C         138.6207  139.0592  166.0690 C.3     1  UNL1        0.2054
     20 C         139.9263  139.6491  166.5132 C.3     1  UNL1        0.0473
     21 C         141.1943  139.2886  165.7975 C.3     1  UNL1        0.0037
     22 C         142.3788  139.6920  164.9703 C.3     1  UNL1        0.0001
     23 C         142.2060  138.2609  165.3850 C.3     1  UNL1        0.0001
     24 C         143.0471  136.4623  155.6288 C.ar    1  UNL1        0.0566
     25 C         142.1065  136.1181  154.5122 C.ar    1  UNL1        0.0044
     26 C         141.5557  134.7276  154.3974 C.ar    1  UNL1        0.0002
     27 C         141.9456  133.6814  155.3992 C.ar    1  UNL1        0.0274
     28 C         142.8862  134.0256  156.5157 C.ar    1  UNL1        0.1361
     29 C         143.4370  135.4161  156.6305 C.ar    1  UNL1        0.0411
     30 C         141.3947  132.2908  155.2843 C.3     1  UNL1        0.0952
     31 N         142.3107  131.1090  155.4041 N.3     1  UNL1       -0.3174
     32 H         142.9599  131.1010  154.6174 H       1  UNL1        0.1192
     33 H         141.7602  130.2504  155.3994 H       1  UNL1        0.1192
     34 O         143.2760  132.9795  157.5174 O.3     1  UNL1       -0.4717
     35 C         144.7232  132.6475  157.7305 C.3     1  UNL1        0.2525
     36 C         147.0368  141.2674  155.4454 C.3     1  UNL1        0.1107
     37 N         146.0428  140.5100  156.2749 N.am    1  UNL1       -0.3013
     38 C         144.5983  140.9143  156.2693 C.2     1  UNL1        0.2407
     39 O         144.1478  142.0761  155.4342 O.2     1  UNL1       -0.2733
     40 H         146.3384  139.7474  156.8230 H       1  UNL1        0.1495
@<TRIPOS>BOND
     1    36    37    1
     2    37    38   am
     3    38    39    2
     4     1    38    1
     5     1     2    1
     6     2     3    1
     7     3     8    1
     8     8     9    1
     9     9    10    1
    10    10    11    1
    11    11    12   ar
    12    12    13   ar
    13    13    14   ar
    14    14    15   ar
    15    15    16   ar
    16    16    18    1
    17    18    19    1
    18    19    20    1
    19    20    21    1
    20    21    22    1
    21    22    23    1
    22    12    17    1
    23     3     4    1
    24     4     5    1
    25     5     6   am
    26     6     7    2
    27     6    24    1
    28    24    25   ar
    29    25    26   ar
    30    26    27   ar
    31    27    30    1
    32    30    31    1
    33    27    28   ar
    34    28    34    1
    35    34    35    1
    36    28    29   ar
    37     5     1    1
    38    29    24   ar
    39    17     8    1
    40    16    11   ar
    41    23    21    1
    42    37    40    1
    43    31    32    1
    44    31    33    1
@<TRIPOS>MOLECULE
*****
 40 44 0 0 0
SMALL
GASTEIGER

@<TRIPOS>ATOM
      1 C         144.3193  140.5583  157.0802 C.3     1  UNL1        0.1534
      2 C         143.9394  141.0016  158.4619 C.3     1  UNL1        0.0469
      3 C         143.1132  139.9164  159.0862 C.3     1  UNL1        0.0798
      4 C         142.9825  138.8023  158.0904 C.3     1  UNL1        0.1101
      5 N         143.7279  139.1990  156.8506 N.am    1  UNL1       -0.2680
      6 C         143.8588  138.3802  155.6006 C.2     1  UNL1        0.2495
      7 O         144.6398  138.9106  154.4350 O.2     1  UNL1       -0.2699
      8 N         142.5216  139.9410  160.4645 N.3     1  UNL1       -0.2682
      9 C         142.2346  141.2521  161.1342 C.3     1  UNL1        0.0772
     10 C         141.6430  141.2766  162.5123 C.3     1  UNL1        0.0465
     11 C         141.3384  139.9901  163.2208 C.ar    1  UNL1        0.0105
     12 C         141.6254  138.6789  162.5511 C.ar    1  UNL1       -0.0072
     13 C         141.3208  137.3924  163.2596 C.ar    1  UNL1       -0.0030
     14 C         140.7293  137.4169  164.6377 C.ar    1  UNL1        0.0028
     15 C         140.4422  138.7281  165.3075 C.ar    1  UNL1        0.0366
     16 C         140.7468  140.0146  164.5990 C.ar    1  UNL1        0.1343
     17 C         142.2170  138.6544  161.1729 C.3     1  UNL1        0.0989
     18 O         140.4598  141.3258  165.2687 O.3     1  UNL1       -0.4758
     19 C         141.4023  141.8602  166.3061 C.3     1  UNL1        0.2054
     20 C         142.8597  141.5104  166.2468 C.3     1  UNL1        0.0473
     21 C         143.7922  142.3234  165.3987 C.3     1  UNL1        0.0037
     22 C         144.9258  142.3982  164.4192 C.3     1  UNL1        0.0001
     23 C         144.2739  143.6570  164.9092 C.3     1  UNL1        0.0001
     24 C         143.2088  137.0310  155.5163 C.ar    1  UNL1        0.0566
     25 C         141.7693  136.9161  155.1109 C.ar    1  UNL1        0.0044
     26 C         141.1193  135.5669  155.0266 C.ar    1  UNL1        0.0002
     27 C         141.9089  134.3326  155.3476 C.ar    1  UNL1        0.0274
     28 C         143.3484  134.4475  155.7530 C.ar    1  UNL1        0.1361
     29 C         143.9984  135.7967  155.8374 C.ar    1  UNL1        0.0411
     30 C         141.2588  132.9833  155.2633 C.3     1  UNL1        0.0952
     31 N         141.9395  131.8675  154.5273 N.3     1  UNL1       -0.3174
     32 H         141.9889  132.0956  153.5344 H       1  UNL1        0.1192
     33 H         141.4097  131.0049  154.6521 H       1  UNL1        0.1192
     34 O         144.1380  133.2133  156.0741 O.3     1  UNL1       -0.4717
     35 C         144.4052  132.8445  157.5032 C.3     1  UNL1        0.2525
     36 C         147.3677  141.6729  154.7966 C.3     1  UNL1        0.1107
     37 N         146.5415  140.8939  155.7766 N.am    1  UNL1       -0.3013
     38 C         145.1455  141.3373  156.1002 C.2     1  UNL1        0.2407
     39 O         144.5758  142.5598  155.4439 O.2     1  UNL1       -0.2733
     40 H         146.9154  140.0915  156.2074 H       1  UNL1        0.1495
@<TRIPOS>BOND
     1    36    37    1
     2    37    38   am
     3    38    39    2
     4     1    38    1
     5     1     2    1
     6     2     3    1
     7     3     8    1
     8     8     9    1
     9     9    10    1
    10    10    11    1
    11    11    12   ar
    12    12    13   ar
    13    13    14   ar
    14    14    15   ar
    15    15    16   ar
    16    16    18    1
    17    18    19    1
    18    19    20    1
    19    20    21    1
    20    21    22    1
    21    22    23    1
    22    12    17    1
    23     3     4    1
    24     4     5    1
    25     5     6   am
    26     6     7    2
    27     6    24    1
    28    24    25   ar
    29    25    26   ar
    30    26    27   ar
    31    27    30    1
    32    30    31    1
    33    27    28   ar
    34    28    34    1
    35    34    35    1
    36    28    29   ar
    37     5     1    1
    38    29    24   ar
    39    17     8    1
    40    16    11   ar
    41    23    21    1
    42    37    40    1
    43    31    32    1
    44    31    33    1
@<TRIPOS>MOLECULE
*****
 40 44 0 0 0
SMALL
GASTEIGER

@<TRIPOS>ATOM
      1 C         143.9741  138.1268  156.0009 C.3     1  UNL1        0.1534
      2 C         144.1733  136.7822  155.3666 C.3     1  UNL1        0.0469
      3 C         143.4140  135.7716  156.1742 C.3     1  UNL1        0.0798
      4 C         142.7455  136.4917  157.3077 C.3     1  UNL1        0.1101
      5 N         143.0917  137.9472  157.2006 N.am    1  UNL1       -0.2680
      6 C         142.6356  139.0327  158.1299 C.2     1  UNL1        0.2495
      7 O         143.0651  140.4506  157.8952 O.2     1  UNL1       -0.2699
      8 N         143.3367  134.2994  155.8970 N.3     1  UNL1       -0.2682
      9 C         142.7272  133.8082  154.6176 C.3     1  UNL1        0.0772
     10 C         142.6499  132.3361  154.3404 C.3     1  UNL1        0.0465
     11 C         143.1822  131.3552  155.3427 C.ar    1  UNL1        0.0105
     12 C         143.7918  131.8465  156.6222 C.ar    1  UNL1       -0.0072
     13 C         144.3241  130.8657  157.6245 C.ar    1  UNL1       -0.0030
     14 C         144.2468  129.3935  157.3473 C.ar    1  UNL1        0.0028
     15 C         143.6373  128.9022  156.0678 C.ar    1  UNL1        0.0366
     16 C         143.1050  129.8830  155.0655 C.ar    1  UNL1        0.1343
     17 C         143.8690  133.3186  156.8993 C.3     1  UNL1        0.0989
     18 O         142.4954  129.3917  153.7861 O.3     1  UNL1       -0.4758
     19 C         141.0716  128.9199  153.7662 C.3     1  UNL1        0.2054
     20 C         140.2072  129.0929  154.9798 C.3     1  UNL1        0.0473
     21 C         139.3660  127.9519  155.4701 C.3     1  UNL1        0.0037
     22 C         138.5520  126.7237  155.1895 C.3     1  UNL1        0.0001
     23 C         138.7227  127.2040  156.6001 C.3     1  UNL1        0.0001
     24 C         141.7499  138.7003  159.2940 C.ar    1  UNL1        0.0566
     25 C         140.2590  138.7732  159.1469 C.ar    1  UNL1        0.0044
     26 C         139.3733  138.4408  160.3110 C.ar    1  UNL1        0.0002
     27 C         139.9787  138.0354  161.6222 C.ar    1  UNL1        0.0274
     28 C         141.4697  137.9625  161.7693 C.ar    1  UNL1        0.1361
     29 C         142.3553  138.2949  160.6052 C.ar    1  UNL1        0.0411
     30 C         139.0930  137.7030  162.7863 C.3     1  UNL1        0.0952
     31 N         138.3955  138.7996  163.5352 N.3     1  UNL1       -0.3174
     32 H         139.0870  139.3818  164.0077 H       1  UNL1        0.1192
     33 H         137.7652  138.3921  164.2259 H       1  UNL1        0.1192
     34 O         142.0749  137.5571  163.0805 O.3     1  UNL1       -0.4717
     35 C         142.5062  138.6049  164.0633 C.3     1  UNL1        0.2525
     36 C         146.2781  141.3506  155.7800 C.3     1  UNL1        0.1107
     37 N         145.6970  140.0541  156.2609 N.am    1  UNL1       -0.3013
     38 C         144.5553  139.4233  155.5200 C.2     1  UNL1        0.2407
     39 O         143.9949  140.0891  154.2982 O.2     1  UNL1       -0.2733
     40 H         146.0648  139.6171  157.0627 H       1  UNL1        0.1495
@<TRIPOS>BOND
     1    36    37    1
     2    37    38   am
     3    38    39    2
     4     1    38    1
     5     1     2    1
     6     2     3    1
     7     3     8    1
     8     8     9    1
     9     9    10    1
    10    10    11    1
    11    11    12   ar
    12    12    13   ar
    13    13    14   ar
    14    14    15   ar
    15    15    16   ar
    16    16    18    1
    17    18    19    1
    18    19    20    1
    19    20    21    1
    20    21    22    1
    21    22    23    1
    22    12    17    1
    23     3     4    1
    24     4     5    1
    25     5     6   am
    26     6     7    2
    27     6    24    1
    28    24    25   ar
    29    25    26   ar
    30    26    27   ar
    31    27    30    1
    32    30    31    1
    33    27    28   ar
    34    28    34    1
    35    34    35    1
    36    28    29   ar
    37     5     1    1
    38    29    24   ar
    39    17     8    1
    40    16    11   ar
    41    23    21    1
    42    37    40    1
    43    31    32    1
    44    31    33    1
@<TRIPOS>MOLECULE
*****
 40 44 0 0 0
SMALL
GASTEIGER

@<TRIPOS>ATOM
      1 C         140.6690  137.9579  156.1665 C.3     1  UNL1        0.1534
      2 C         141.0662  138.8224  157.3261 C.3     1  UNL1        0.0469
      3 C         142.0916  138.0784  158.1293 C.3     1  UNL1        0.0798
      4 C         142.3282  136.7540  157.4659 C.3     1  UNL1        0.1101
      5 N         141.4491  136.6795  156.2529 N.am    1  UNL1       -0.2680
      6 C         141.3647  135.5287  155.2945 C.2     1  UNL1        0.2495
      7 O         140.4345  135.5976  154.1198 O.2     1  UNL1       -0.2699
      8 N         142.7626  138.5721  159.3767 N.3     1  UNL1       -0.2682
      9 C         143.0300  137.6257  160.5093 C.3     1  UNL1        0.0772
     10 C         143.7010  138.1195  161.7567 C.3     1  UNL1        0.0465
     11 C         144.1045  139.5596  161.8715 C.ar    1  UNL1        0.0105
     12 C         143.8370  140.5060  160.7389 C.ar    1  UNL1       -0.0072
     13 C         144.2405  141.9461  160.8537 C.ar    1  UNL1       -0.0030
     14 C         144.9115  142.4399  162.1010 C.ar    1  UNL1        0.0028
     15 C         145.1790  141.4935  163.2337 C.ar    1  UNL1        0.0366
     16 C         144.7755  140.0534  163.1189 C.ar    1  UNL1        0.1343
     17 C         143.1661  140.0122  159.4915 C.3     1  UNL1        0.0989
     18 O         145.0429  139.1070  164.2515 O.3     1  UNL1       -0.4758
     19 C         144.0856  139.0264  165.4036 C.3     1  UNL1        0.2054
     20 C         142.6620  139.4648  165.2278 C.3     1  UNL1        0.0473
     21 C         141.6451  138.5084  164.6792 C.3     1  UNL1        0.0037
     22 C         140.3679  138.2565  163.9340 C.3     1  UNL1        0.0001
     23 C         141.1609  137.1035  164.4740 C.3     1  UNL1        0.0001
     24 C         142.2105  134.3089  155.5108 C.ar    1  UNL1        0.0566
     25 C         143.6222  134.4519  155.9972 C.ar    1  UNL1        0.0044
     26 C         144.4681  133.2321  156.2135 C.ar    1  UNL1        0.0002
     27 C         143.9022  131.8695  155.9434 C.ar    1  UNL1        0.0274
     28 C         142.4904  131.7265  155.4570 C.ar    1  UNL1        0.1361
     29 C         141.6446  132.9463  155.2407 C.ar    1  UNL1        0.0411
     30 C         144.7481  130.6497  156.1597 C.3     1  UNL1        0.0952
     31 N         145.1185  129.7780  154.9966 N.3     1  UNL1       -0.3174
     32 H         144.2786  129.3386  154.6200 H       1  UNL1        0.1192
     33 H         145.7699  129.0567  155.3062 H       1  UNL1        0.1192
     34 O         141.9246  130.3640  155.1869 O.3     1  UNL1       -0.4717
     35 C         140.4757  130.2107  154.8303 C.3     1  UNL1        0.2525
     36 C         139.1297  139.0071  152.6623 C.3     1  UNL1        0.1107
     37 N         140.1310  138.6551  153.7222 N.am    1  UNL1       -0.3013
     38 C         139.6678  138.3098  155.1065 C.2     1  UNL1        0.2407
     39 O         138.2033  138.3166  155.4309 O.2     1  UNL1       -0.2733
     40 H         141.0922  138.6506  153.5093 H       1  UNL1        0.1495
@<TRIPOS>BOND
     1    36    37    1
     2    37    38   am
     3    38    39    2
     4     1    38    1
     5     1     2    1
     6     2     3    1
     7     3     8    1
     8     8     9    1
     9     9    10    1
    10    10    11    1
    11    11    12   ar
    12    12    13   ar
    13    13    14   ar
    14    14    15   ar
    15    15    16   ar
    16    16    18    1
    17    18    19    1
    18    19    20    1
    19    20    21    1
    20    21    22    1
    21    22    23    1
    22    12    17    1
    23     3     4    1
    24     4     5    1
    25     5     6   am
    26     6     7    2
    27     6    24    1
    28    24    25   ar
    29    25    26   ar
    30    26    27   ar
    31    27    30    1
    32    30    31    1
    33    27    28   ar
    34    28    34    1
    35    34    35    1
    36    28    29   ar
    37     5     1    1
    38    29    24   ar
    39    17     8    1
    40    16    11   ar
    41    23    21    1
    42    37    40    1
    43    31    32    1
    44    31    33    1
@<TRIPOS>MOLECULE
*****
 40 44 0 0 0
SMALL
GASTEIGER

@<TRIPOS>ATOM
      1 C         138.2292  140.9524  158.0938 C.3     1  UNL1        0.1534
      2 C         138.3984  141.3309  159.5354 C.3     1  UNL1        0.0469
      3 C         139.5939  140.5992  160.0696 C.3     1  UNL1        0.0798
      4 C         140.1636  139.7685  158.9581 C.3     1  UNL1        0.1101
      5 N         139.3202  139.9867  157.7371 N.am    1  UNL1       -0.2680
      6 C         139.5308  139.3510  156.3949 C.2     1  UNL1        0.2495
      7 O         138.6007  139.6667  155.2612 O.2     1  UNL1       -0.2699
      8 N         140.1263  140.6835  161.4694 N.3     1  UNL1       -0.2682
      9 C         141.5724  141.0058  161.7038 C.3     1  UNL1        0.0772
     10 C         142.1047  141.0901  163.1036 C.3     1  UNL1        0.0465
     11 C         141.1909  140.8520  164.2691 C.ar    1  UNL1        0.0105
     12 C         139.7448  140.5297  164.0347 C.ar    1  UNL1       -0.0072
     13 C         138.8310  140.2917  165.2002 C.ar    1  UNL1       -0.0030
     14 C         139.3633  140.3759  166.6000 C.ar    1  UNL1        0.0028
     15 C         140.8095  140.6983  166.8344 C.ar    1  UNL1        0.0366
     16 C         141.7232  140.9363  165.6689 C.ar    1  UNL1        0.1343
     17 C         139.2125  140.4455  162.6349 C.3     1  UNL1        0.0989
     18 O         143.1693  141.2586  165.9033 O.3     1  UNL1       -0.4758
     19 C         143.5675  142.6312  166.3591 C.3     1  UNL1        0.2054
     20 C         144.4201  143.4959  165.4786 C.3     1  UNL1        0.0473
     21 C         143.8020  144.2368  164.3301 C.3     1  UNL1        0.0037
     22 C         143.8251  144.6521  162.8890 C.3     1  UNL1        0.0001
     23 C         142.7082  145.1046  163.7820 C.3     1  UNL1        0.0001
     24 C         140.6714  138.3994  156.1864 C.ar    1  UNL1        0.0566
     25 C         140.4141  136.9231  156.1212 C.ar    1  UNL1        0.0044
     26 C         141.5548  135.9715  155.9127 C.ar    1  UNL1        0.0002
     27 C         142.9527  136.4963  155.7694 C.ar    1  UNL1        0.0274
     28 C         143.2099  137.9727  155.8345 C.ar    1  UNL1        0.1361
     29 C         142.0693  138.9242  156.0430 C.ar    1  UNL1        0.0411
     30 C         144.0933  135.5447  155.5608 C.3     1  UNL1        0.0952
     31 N         144.1666  134.2757  156.3573 N.3     1  UNL1       -0.3174
     32 H         144.3094  134.5002  157.3420 H       1  UNL1        0.1192
     33 H         144.9447  133.7081  156.0217 H       1  UNL1        0.1192
     34 O         144.6077  138.4974  155.6912 O.3     1  UNL1       -0.4717
     35 C         144.8634  139.9745  155.7433 C.3     1  UNL1        0.2525
     36 C         135.0148  141.0172  155.7672 C.3     1  UNL1        0.1107
     37 N         136.0867  140.5178  156.6900 N.am    1  UNL1       -0.3013
     38 C         137.1573  141.4518  157.1711 C.2     1  UNL1        0.2407
     39 O         137.1559  142.8853  156.7295 O.2     1  UNL1       -0.2733
     40 H         136.0876  139.5769  156.9798 H       1  UNL1        0.1495
@<TRIPOS>BOND
     1    36    37    1
     2    37    38   am
     3    38    39    2
     4     1    38    1
     5     1     2    1
     6     2     3    1
     7     3     8    1
     8     8     9    1
     9     9    10    1
    10    10    11    1
    11    11    12   ar
    12    12    13   ar
    13    13    14   ar
    14    14    15   ar
    15    15    16   ar
    16    16    18    1
    17    18    19    1
    18    19    20    1
    19    20    21    1
    20    21    22    1
    21    22    23    1
    22    12    17    1
    23     3     4    1
    24     4     5    1
    25     5     6   am
    26     6     7    2
    27     6    24    1
    28    24    25   ar
    29    25    26   ar
    30    26    27   ar
    31    27    30    1
    32    30    31    1
    33    27    28   ar
    34    28    34    1
    35    34    35    1
    36    28    29   ar
    37     5     1    1
    38    29    24   ar
    39    17     8    1
    40    16    11   ar
    41    23    21    1
    42    37    40    1
    43    31    32    1
    44    31    33    1
