@<TRIPOS>MOLECULE
*****
 36 39 0 0 0
SMALL
GASTEIGER

@<TRIPOS>ATOM
      1 C         143.3564  138.8145  161.2666 C.ar    1  UNL1        0.0359
      2 C         144.3875  139.6469  161.9693 C.ar    1  UNL1        0.0043
      3 C         144.4431  139.6642  163.4683 C.ar    1  UNL1        0.0148
      4 C         143.4675  138.8491  164.2644 C.ar    1  UNL1        0.0516
      5 C         142.4363  138.0167  163.5616 C.ar    1  UNL1        0.0148
      6 C         142.3808  137.9994  162.0627 C.ar    1  UNL1        0.0043
      7 C         143.5953  140.0138  157.4911 C.ar    1  UNL1        0.0872
      8 C         143.1898  138.7626  156.7700 C.ar    1  UNL1        0.0508
      9 C         142.8398  137.5287  157.5478 C.ar    1  UNL1        0.1347
     10 N         142.8953  137.5460  159.0466 N.ar    1  UNL1       -0.2119
     11 C         143.3008  138.7972  159.7677 C.ar    1  UNL1        0.1633
     12 N         143.6508  140.0311  158.9899 N.ar    1  UNL1       -0.2290
     13 N         142.4342  136.2774  156.8266 N.pl3   1  UNL1       -0.2880
     14 C         143.0853  134.9701  157.1688 C.3     1  UNL1        0.1242
     15 C         142.6798  133.7189  156.4477 C.3     1  UNL1        0.1636
     16 O         141.6232  133.7750  155.3844 O.3     1  UNL1       -0.3501
     17 C         140.9722  135.0823  155.0422 C.3     1  UNL1        0.1636
     18 C         141.3777  136.3336  155.7633 C.3     1  UNL1        0.1242
     19 C         143.9453  141.2477  156.7133 C.3     1  UNL1        0.1963
     20 C         146.6660  142.4793  156.9985 C.3     1  UNL1        0.1765
     21 S         145.3056  141.8635  156.8559 S.O2    1  UNL1       -0.0025
     22 O         144.7517  142.8618  157.8287 O.2     1  UNL1       -0.1726
     23 O         145.8595  140.8652  155.8830 O.2     1  UNL1       -0.1726
     24 N         143.5230  138.8664  165.7632 N.am    1  UNL1       -0.2681
     25 C         142.6316  139.7927  166.5361 C.2     1  UNL1        0.3082
     26 O         141.6846  140.7017  165.8101 O.2     1  UNL1       -0.2522
     27 N         142.6870  139.8100  168.0350 N.am    1  UNL1       -0.2681
     28 H         144.1445  138.2698  166.2397 H       1  UNL1        0.1564
     29 H         143.3085  139.2134  168.5115 H       1  UNL1        0.1564
     30 C         141.7956  140.7363  168.8078 C.ar    1  UNL1        0.0517
     31 C         142.2598  142.1247  169.1347 C.ar    1  UNL1        0.0170
     32 C         141.3683  143.0510  169.9076 C.ar    1  UNL1        0.0309
     33 C         140.0127  142.5889  170.3536 C.ar    1  UNL1        0.1402
     34 F         139.1213  143.5152  171.1264 F       1  UNL1       -0.2042
     35 C         139.5486  141.2004  170.0267 C.ar    1  UNL1        0.0309
     36 C         140.4401  140.2741  169.2538 C.ar    1  UNL1        0.0170
@<TRIPOS>BOND
     1    20    21    1
     2    21    22    2
     3    21    23    2
     4    21    19    1
     5    19     7    1
     6     7     8   ar
     7     8     9   ar
     8     9    13    1
     9    13    14    1
    10    14    15    1
    11    15    16    1
    12    16    17    1
    13    17    18    1
    14     9    10   ar
    15    10    11   ar
    16    11     1    1
    17     1     2   ar
    18     2     3   ar
    19     3     4   ar
    20     4    24    1
    21    24    25   am
    22    25    26    2
    23    25    27   am
    24    27    30    1
    25    30    31   ar
    26    31    32   ar
    27    32    33   ar
    28    33    34    1
    29    33    35   ar
    30    35    36   ar
    31     4     5   ar
    32     5     6   ar
    33    11    12   ar
    34    12     7   ar
    35    18    13    1
    36     6     1   ar
    37    36    30   ar
    38    24    28    1
    39    27    29    1
@<TRIPOS>MOLECULE
*****
 36 39 0 0 0
SMALL
GASTEIGER

@<TRIPOS>ATOM
      1 C         138.7889  139.4082  161.1885 C.ar    1  UNL1        0.0359
      2 C         139.4571  138.3049  161.9540 C.ar    1  UNL1        0.0043
      3 C         139.4285  138.3084  163.4537 C.ar    1  UNL1        0.0148
      4 C         138.7318  139.4154  164.1880 C.ar    1  UNL1        0.0516
      5 C         138.0635  140.5188  163.4224 C.ar    1  UNL1        0.0148
      6 C         138.0921  140.5152  161.9227 C.ar    1  UNL1        0.0043
      7 C         137.9746  140.3496  157.4201 C.ar    1  UNL1        0.0872
      8 C         138.8744  139.3976  156.6893 C.ar    1  UNL1        0.0508
      9 C         139.7457  138.4492  157.4583 C.ar    1  UNL1        0.1347
     10 N         139.7172  138.4527  158.9580 N.ar    1  UNL1       -0.2119
     11 C         138.8174  139.4047  159.6887 C.ar    1  UNL1        0.1633
     12 N         137.9461  140.3531  158.9198 N.ar    1  UNL1       -0.2290
     13 N         140.6456  137.4972  156.7274 N.pl3   1  UNL1       -0.2880
     14 C         140.1263  136.7307  155.5473 C.3     1  UNL1        0.1242
     15 C         141.0261  135.7787  154.8164 C.3     1  UNL1        0.1636
     16 O         142.4452  135.5933  155.2658 O.3     1  UNL1       -0.3501
     17 C         142.9645  136.3598  156.4460 C.3     1  UNL1        0.1636
     18 C         142.0646  137.3118  157.1768 C.3     1  UNL1        0.1242
     19 C         137.1033  141.2980  156.6512 C.3     1  UNL1        0.1963
     20 C         135.0394  140.2342  154.7515 C.3     1  UNL1        0.1765
     21 S         136.0714  140.7662  155.7014 S.O2    1  UNL1       -0.0025
     22 O         136.8738  141.2788  154.5424 O.2     1  UNL1       -0.1726
     23 O         135.2689  140.2535  156.8603 O.2     1  UNL1       -0.1726
     24 N         138.7032  139.4190  165.6877 N.am    1  UNL1       -0.2681
     25 C         139.6655  140.2771  166.4540 C.2     1  UNL1        0.3082
     26 O         140.6565  141.1317  165.7207 O.2     1  UNL1       -0.2522
     27 N         139.6370  140.2808  167.9538 N.am    1  UNL1       -0.2681
     28 H         138.0528  138.8581  166.1690 H       1  UNL1        0.1564
     29 H         138.9866  139.7199  168.4351 H       1  UNL1        0.1564
     30 C         140.5994  141.1390  168.7202 C.ar    1  UNL1        0.0517
     31 C         141.9416  140.5954  169.1113 C.ar    1  UNL1        0.0170
     32 C         142.9040  141.4536  169.8776 C.ar    1  UNL1        0.0309
     33 C         142.5241  142.8554  170.2529 C.ar    1  UNL1        0.1402
     34 F         143.4865  143.7136  171.0193 F       1  UNL1       -0.2042
     35 C         141.1818  143.3989  169.8619 C.ar    1  UNL1        0.0309
     36 C         140.2195  142.5406  169.0954 C.ar    1  UNL1        0.0170
@<TRIPOS>BOND
     1    20    21    1
     2    21    22    2
     3    21    23    2
     4    21    19    1
     5    19     7    1
     6     7     8   ar
     7     8     9   ar
     8     9    13    1
     9    13    14    1
    10    14    15    1
    11    15    16    1
    12    16    17    1
    13    17    18    1
    14     9    10   ar
    15    10    11   ar
    16    11     1    1
    17     1     2   ar
    18     2     3   ar
    19     3     4   ar
    20     4    24    1
    21    24    25   am
    22    25    26    2
    23    25    27   am
    24    27    30    1
    25    30    31   ar
    26    31    32   ar
    27    32    33   ar
    28    33    34    1
    29    33    35   ar
    30    35    36   ar
    31     4     5   ar
    32     5     6   ar
    33    11    12   ar
    34    12     7   ar
    35    18    13    1
    36     6     1   ar
    37    36    30   ar
    38    24    28    1
    39    27    29    1
@<TRIPOS>MOLECULE
*****
 36 39 0 0 0
SMALL
GASTEIGER

@<TRIPOS>ATOM
      1 C         143.9180  143.1191  161.1946 C.ar    1  UNL1        0.0359
      2 C         144.8579  142.1936  161.9088 C.ar    1  UNL1        0.0043
      3 C         144.9601  142.2363  163.4048 C.ar    1  UNL1        0.0148
      4 C         144.1224  143.2045  164.1864 C.ar    1  UNL1        0.0516
      5 C         143.1825  144.1300  163.4720 C.ar    1  UNL1        0.0148
      6 C         143.0803  144.0872  161.9762 C.ar    1  UNL1        0.0043
      7 C         144.6695  142.1927  157.4094 C.ar    1  UNL1        0.0872
      8 C         143.6115  142.9909  156.7068 C.ar    1  UNL1        0.0508
      9 C         142.6557  143.8318  157.5002 C.ar    1  UNL1        0.1347
     10 N         142.7579  143.8745  158.9960 N.ar    1  UNL1       -0.2119
     11 C         143.8158  143.0764  159.6986 C.ar    1  UNL1        0.1633
     12 N         144.7716  142.2355  158.9053 N.ar    1  UNL1       -0.2290
     13 N         141.5977  144.6299  156.7975 N.pl3   1  UNL1       -0.2880
     14 C         141.2448  144.3179  155.3734 C.3     1  UNL1        0.1242
     15 C         140.1868  145.1160  154.6708 C.3     1  UNL1        0.1636
     16 O         139.4817  146.2262  155.3923 O.3     1  UNL1       -0.3501
     17 C         139.8347  146.5382  156.8164 C.3     1  UNL1        0.1636
     18 C         140.8927  145.7400  157.5190 C.3     1  UNL1        0.1242
     19 C         145.6253  141.3519  156.6161 C.3     1  UNL1        0.1963
     20 C         147.5852  142.6574  154.7574 C.3     1  UNL1        0.1765
     21 S         146.6052  142.0046  155.6868 S.O2    1  UNL1       -0.0025
     22 O         147.3297  142.5906  156.8622 O.2     1  UNL1       -0.1726
     23 O         145.8807  141.4186  154.5113 O.2     1  UNL1       -0.1726
     24 N         144.2246  143.2472  165.6823 N.am    1  UNL1       -0.2681
     25 C         143.2579  142.4666  166.5226 C.2     1  UNL1        0.3082
     26 O         142.1892  141.6432  165.8670 O.2     1  UNL1       -0.2522
     27 N         143.3601  142.5093  168.0185 N.am    1  UNL1       -0.2681
     28 H         144.9260  143.7877  166.1125 H       1  UNL1        0.1564
     29 H         144.0615  143.0497  168.4488 H       1  UNL1        0.1564
     30 C         142.3935  141.7286  168.8589 C.ar    1  UNL1        0.0517
     31 C         141.0175  142.2678  169.1158 C.ar    1  UNL1        0.0170
     32 C         140.0509  141.4872  169.9561 C.ar    1  UNL1        0.0309
     33 C         140.4602  140.1673  170.5396 C.ar    1  UNL1        0.1402
     34 F         139.4936  139.3866  171.3799 F       1  UNL1       -0.2042
     35 C         141.8362  139.6281  170.2827 C.ar    1  UNL1        0.0309
     36 C         142.8028  140.4088  169.4423 C.ar    1  UNL1        0.0170
@<TRIPOS>BOND
     1    20    21    1
     2    21    22    2
     3    21    23    2
     4    21    19    1
     5    19     7    1
     6     7     8   ar
     7     8     9   ar
     8     9    13    1
     9    13    14    1
    10    14    15    1
    11    15    16    1
    12    16    17    1
    13    17    18    1
    14     9    10   ar
    15    10    11   ar
    16    11     1    1
    17     1     2   ar
    18     2     3   ar
    19     3     4   ar
    20     4    24    1
    21    24    25   am
    22    25    26    2
    23    25    27   am
    24    27    30    1
    25    30    31   ar
    26    31    32   ar
    27    32    33   ar
    28    33    34    1
    29    33    35   ar
    30    35    36   ar
    31     4     5   ar
    32     5     6   ar
    33    11    12   ar
    34    12     7   ar
    35    18    13    1
    36     6     1   ar
    37    36    30   ar
    38    24    28    1
    39    27    29    1
@<TRIPOS>MOLECULE
*****
 36 39 0 0 0
SMALL
GASTEIGER

@<TRIPOS>ATOM
      1 C         142.9785  138.7743  161.0263 C.ar    1  UNL1        0.0359
      2 C         141.9841  138.0134  161.8522 C.ar    1  UNL1        0.0043
      3 C         142.1007  138.0057  163.3477 C.ar    1  UNL1        0.0148
      4 C         143.2117  138.7589  164.0172 C.ar    1  UNL1        0.0516
      5 C         144.2061  139.5199  163.1912 C.ar    1  UNL1        0.0148
      6 C         144.0895  139.5275  161.6958 C.ar    1  UNL1        0.0043
      7 C         141.6444  138.0223  157.3650 C.ar    1  UNL1        0.0872
      8 C         142.6286  138.7973  156.5400 C.ar    1  UNL1        0.0508
      9 C         143.7294  139.5647  157.2104 C.ar    1  UNL1        0.1347
     10 N         143.8461  139.5570  158.7058 N.ar    1  UNL1       -0.2119
     11 C         142.8619  138.7820  159.5308 C.ar    1  UNL1        0.1633
     12 N         141.7610  138.0147  158.8604 N.ar    1  UNL1       -0.2290
     13 N         144.7136  140.3397  156.3853 N.pl3   1  UNL1       -0.2880
     14 C         145.4438  141.5039  156.9864 C.3     1  UNL1        0.1242
     15 C         146.4280  142.2789  156.1613 C.3     1  UNL1        0.1636
     16 O         146.6820  141.8897  154.7351 O.3     1  UNL1       -0.3501
     17 C         145.9518  140.7255  154.1340 C.3     1  UNL1        0.1636
     18 C         144.9676  139.9504  154.9591 C.3     1  UNL1        0.1242
     19 C         140.5436  137.2550  156.6947 C.3     1  UNL1        0.1963
     20 C         138.6202  138.6692  154.8779 C.3     1  UNL1        0.1765
     21 S         139.5819  137.9621  155.7863 S.O2    1  UNL1       -0.0025
     22 O         140.1307  137.2034  154.6146 O.2     1  UNL1       -0.1726
     23 O         139.0330  138.7209  156.9581 O.2     1  UNL1       -0.1726
     24 N         143.3284  138.7513  165.5126 N.am    1  UNL1       -0.2681
     25 C         142.4788  139.6734  166.3358 C.2     1  UNL1        0.3082
     26 O         141.5125  140.6032  165.6637 O.2     1  UNL1       -0.2522
     27 N         142.5954  139.6658  167.8313 N.am    1  UNL1       -0.2681
     28 H         143.9626  138.1410  165.9538 H       1  UNL1        0.1564
     29 H         143.2296  139.0555  168.2725 H       1  UNL1        0.1564
     30 C         141.7458  140.5879  168.6546 C.ar    1  UNL1        0.0517
     31 C         140.3974  140.1379  169.1337 C.ar    1  UNL1        0.0170
     32 C         139.5478  141.0600  169.9569 C.ar    1  UNL1        0.0309
     33 C         140.0465  142.4323  170.3011 C.ar    1  UNL1        0.1402
     34 F         139.1969  143.3544  171.1243 F       1  UNL1       -0.2042
     35 C         141.3948  142.8822  169.8220 C.ar    1  UNL1        0.0309
     36 C         142.2445  141.9600  168.9987 C.ar    1  UNL1        0.0170
@<TRIPOS>BOND
     1    20    21    1
     2    21    22    2
     3    21    23    2
     4    21    19    1
     5    19     7    1
     6     7     8   ar
     7     8     9   ar
     8     9    13    1
     9    13    14    1
    10    14    15    1
    11    15    16    1
    12    16    17    1
    13    17    18    1
    14     9    10   ar
    15    10    11   ar
    16    11     1    1
    17     1     2   ar
    18     2     3   ar
    19     3     4   ar
    20     4    24    1
    21    24    25   am
    22    25    26    2
    23    25    27   am
    24    27    30    1
    25    30    31   ar
    26    31    32   ar
    27    32    33   ar
    28    33    34    1
    29    33    35   ar
    30    35    36   ar
    31     4     5   ar
    32     5     6   ar
    33    11    12   ar
    34    12     7   ar
    35    18    13    1
    36     6     1   ar
    37    36    30   ar
    38    24    28    1
    39    27    29    1
@<TRIPOS>MOLECULE
*****
 36 39 0 0 0
SMALL
GASTEIGER

@<TRIPOS>ATOM
      1 C         140.6774  137.8094  156.7643 C.ar    1  UNL1        0.0359
      2 C         141.9319  137.8533  157.5854 C.ar    1  UNL1        0.0043
      3 C         143.0377  136.8754  157.3185 C.ar    1  UNL1        0.0148
      4 C         142.8889  135.8537  156.2305 C.ar    1  UNL1        0.0516
      5 C         141.6343  135.8098  155.4093 C.ar    1  UNL1        0.0148
      6 C         140.5286  136.7876  155.6763 C.ar    1  UNL1        0.0043
      7 C         137.5182  140.1438  156.1990 C.ar    1  UNL1        0.0872
      8 C         137.3603  140.7428  157.5650 C.ar    1  UNL1        0.0508
      9 C         138.3081  140.3641  158.6642 C.ar    1  UNL1        0.1347
     10 N         139.4138  139.3863  158.3973 N.ar    1  UNL1       -0.2119
     11 C         139.5717  138.7872  157.0313 C.ar    1  UNL1        0.1633
     12 N         138.6239  139.1660  155.9321 N.ar    1  UNL1       -0.2290
     13 N         138.1501  140.9632  160.0303 N.pl3   1  UNL1       -0.2880
     14 C         138.4196  142.4231  160.2447 C.3     1  UNL1        0.1242
     15 C         138.2617  143.0223  161.6107 C.3     1  UNL1        0.1636
     16 O         137.8343  142.1614  162.7625 O.3     1  UNL1       -0.3501
     17 C         137.5648  140.7015  162.5481 C.3     1  UNL1        0.1636
     18 C         137.7227  140.1024  161.1819 C.3     1  UNL1        0.1242
     19 C         136.5704  140.5225  155.0998 C.3     1  UNL1        0.1963
     20 C         133.6173  140.5937  155.6236 C.3     1  UNL1        0.1765
     21 S         135.0939  140.5581  155.3617 S.O2    1  UNL1       -0.0025
     22 O         135.1056  142.0518  155.2252 O.2     1  UNL1       -0.1726
     23 O         135.0821  139.0644  155.4982 O.2     1  UNL1       -0.1726
     24 N         143.9945  134.8759  155.9635 N.am    1  UNL1       -0.2681
     25 C         143.8665  133.4545  156.4254 C.2     1  UNL1        0.3082
     26 O         142.6327  133.0110  157.1543 O.2     1  UNL1       -0.2522
     27 N         144.9722  132.4766  156.1585 N.am    1  UNL1       -0.2681
     28 H         144.8043  135.1669  155.4851 H       1  UNL1        0.1564
     29 H         145.7819  132.7677  155.6801 H       1  UNL1        0.1564
     30 C         144.8441  131.0553  156.6204 C.ar    1  UNL1        0.0517
     31 C         144.6819  129.9523  155.6169 C.ar    1  UNL1        0.0170
     32 C         144.5539  128.5310  156.0788 C.ar    1  UNL1        0.0309
     33 C         144.5880  128.2126  157.5443 C.ar    1  UNL1        0.1402
     34 F         144.4599  126.7913  158.0062 F       1  UNL1       -0.2042
     35 C         144.7502  129.3156  158.5478 C.ar    1  UNL1        0.0309
     36 C         144.8782  130.7370  158.0858 C.ar    1  UNL1        0.0170
@<TRIPOS>BOND
     1    20    21    1
     2    21    22    2
     3    21    23    2
     4    21    19    1
     5    19     7    1
     6     7     8   ar
     7     8     9   ar
     8     9    13    1
     9    13    14    1
    10    14    15    1
    11    15    16    1
    12    16    17    1
    13    17    18    1
    14     9    10   ar
    15    10    11   ar
    16    11     1    1
    17     1     2   ar
    18     2     3   ar
    19     3     4   ar
    20     4    24    1
    21    24    25   am
    22    25    26    2
    23    25    27   am
    24    27    30    1
    25    30    31   ar
    26    31    32   ar
    27    32    33   ar
    28    33    34    1
    29    33    35   ar
    30    35    36   ar
    31     4     5   ar
    32     5     6   ar
    33    11    12   ar
    34    12     7   ar
    35    18    13    1
    36     6     1   ar
    37    36    30   ar
    38    24    28    1
    39    27    29    1
@<TRIPOS>MOLECULE
*****
 36 39 0 0 0
SMALL
GASTEIGER

@<TRIPOS>ATOM
      1 C         139.5310  143.9315  161.2902 C.ar    1  UNL1        0.0359
      2 C         140.6014  144.6598  162.0476 C.ar    1  UNL1        0.0043
      3 C         140.5791  144.6777  163.5473 C.ar    1  UNL1        0.0148
      4 C         139.4863  143.9673  164.2897 C.ar    1  UNL1        0.0516
      5 C         138.4158  143.2389  163.5323 C.ar    1  UNL1        0.0148
      6 C         138.4382  143.2210  162.0326 C.ar    1  UNL1        0.0043
      7 C         140.2011  145.0313  157.5364 C.ar    1  UNL1        0.0872
      8 C         139.5979  143.8778  156.7911 C.ar    1  UNL1        0.0508
      9 C         138.9724  142.7422  157.5454 C.ar    1  UNL1        0.1347
     10 N         138.9501  142.7601  159.0451 N.ar    1  UNL1       -0.2119
     11 C         139.5533  143.9136  159.7904 C.ar    1  UNL1        0.1633
     12 N         140.1788  145.0492  159.0361 N.ar    1  UNL1       -0.2290
     13 N         138.3692  141.5886  156.8000 N.pl3   1  UNL1       -0.2880
     14 C         139.2214  140.4151  156.4172 C.3     1  UNL1        0.1242
     15 C         138.6183  139.2616  155.6718 C.3     1  UNL1        0.1636
     16 O         137.1628  139.2816  155.3093 O.3     1  UNL1       -0.3501
     17 C         136.3106  140.4551  155.6921 C.3     1  UNL1        0.1636
     18 C         136.9138  141.6086  156.4375 C.3     1  UNL1        0.1242
     19 C         140.8266  146.1670  156.7820 C.3     1  UNL1        0.1963
     20 C         139.2143  147.6988  154.7685 C.3     1  UNL1        0.1765
     21 S         140.0204  146.9329  155.7753 S.O2    1  UNL1       -0.0025
     22 O         140.9143  146.4332  154.6793 O.2     1  UNL1       -0.1726
     23 O         139.1266  147.4326  156.8713 O.2     1  UNL1       -0.1726
     24 N         139.4640  143.9852  165.7894 N.am    1  UNL1       -0.2681
     25 C         140.3081  143.0166  166.5636 C.2     1  UNL1        0.3082
     26 O         141.1745  142.0302  165.8381 O.2     1  UNL1       -0.2522
     27 N         140.2858  143.0345  168.0634 N.am    1  UNL1       -0.2681
     28 H         138.8954  144.6326  166.2656 H       1  UNL1        0.1564
     29 H         139.7171  143.6819  168.5396 H       1  UNL1        0.1564
     30 C         141.1299  142.0659  168.8376 C.ar    1  UNL1        0.0517
     31 C         142.5302  142.4363  169.2273 C.ar    1  UNL1        0.0170
     32 C         143.3743  141.4678  170.0016 C.ar    1  UNL1        0.0309
     33 C         142.8180  140.1288  170.3860 C.ar    1  UNL1        0.1402
     34 F         143.6621  139.1603  171.1603 F       1  UNL1       -0.2042
     35 C         141.4177  139.7584  169.9963 C.ar    1  UNL1        0.0309
     36 C         140.5736  140.7270  169.2220 C.ar    1  UNL1        0.0170
@<TRIPOS>BOND
     1    20    21    1
     2    21    22    2
     3    21    23    2
     4    21    19    1
     5    19     7    1
     6     7     8   ar
     7     8     9   ar
     8     9    13    1
     9    13    14    1
    10    14    15    1
    11    15    16    1
    12    16    17    1
    13    17    18    1
    14     9    10   ar
    15    10    11   ar
    16    11     1    1
    17     1     2   ar
    18     2     3   ar
    19     3     4   ar
    20     4    24    1
    21    24    25   am
    22    25    26    2
    23    25    27   am
    24    27    30    1
    25    30    31   ar
    26    31    32   ar
    27    32    33   ar
    28    33    34    1
    29    33    35   ar
    30    35    36   ar
    31     4     5   ar
    32     5     6   ar
    33    11    12   ar
    34    12     7   ar
    35    18    13    1
    36     6     1   ar
    37    36    30   ar
    38    24    28    1
    39    27    29    1
@<TRIPOS>MOLECULE
*****
 36 39 0 0 0
SMALL
GASTEIGER

@<TRIPOS>ATOM
      1 C         139.0612  139.3078  160.1984 C.ar    1  UNL1        0.0359
      2 C         139.8666  138.3288  161.0002 C.ar    1  UNL1        0.0043
      3 C         139.7430  138.3022  162.4949 C.ar    1  UNL1        0.0148
      4 C         138.8141  139.2545  163.1878 C.ar    1  UNL1        0.0516
      5 C         138.0087  140.2335  162.3859 C.ar    1  UNL1        0.0148
      6 C         138.1322  140.2601  160.8912 C.ar    1  UNL1        0.0043
      7 C         140.5165  138.7691  156.5457 C.ar    1  UNL1        0.0872
      8 C         139.4319  139.3876  155.7144 C.ar    1  UNL1        0.0508
      9 C         138.2238  139.9795  156.3778 C.ar    1  UNL1        0.1347
     10 N         138.1002  139.9529  157.8724 N.ar    1  UNL1       -0.2119
     11 C         139.1847  139.3344  158.7037 C.ar    1  UNL1        0.1633
     12 N         140.3929  138.7425  158.0404 N.ar    1  UNL1       -0.2290
     13 N         137.1391  140.5980  155.5464 N.pl3   1  UNL1       -0.2880
     14 C         137.4296  141.0392  154.1425 C.3     1  UNL1        0.1242
     15 C         136.3451  141.6577  153.3111 C.3     1  UNL1        0.1636
     16 O         134.9700  141.8351  153.8836 O.3     1  UNL1       -0.3501
     17 C         134.6795  141.3939  155.2875 C.3     1  UNL1        0.1636
     18 C         135.7641  140.7753  156.1189 C.3     1  UNL1        0.1242
     19 C         141.7247  138.1772  155.8824 C.3     1  UNL1        0.1963
     20 C         142.9563  135.6682  156.9723 C.3     1  UNL1        0.1765
     21 S         142.3404  136.9227  156.4273 S.O2    1  UNL1       -0.0025
     22 O         143.5531  137.6999  156.8462 O.2     1  UNL1       -0.1726
     23 O         141.1278  136.1456  156.0085 O.2     1  UNL1       -0.1726
     24 N         138.6905  139.2279  164.6824 N.am    1  UNL1       -0.2681
     25 C         139.6993  139.9434  165.5312 C.2     1  UNL1        0.3082
     26 O         140.8316  140.6855  164.8853 O.2     1  UNL1       -0.2522
     27 N         139.5757  139.9168  167.0259 N.am    1  UNL1       -0.2681
     28 H         137.9473  138.7409  165.1063 H       1  UNL1        0.1564
     29 H         138.8325  139.4298  167.4498 H       1  UNL1        0.1564
     30 C         140.5845  140.6323  167.8746 C.ar    1  UNL1        0.0517
     31 C         141.8182  139.9157  168.3379 C.ar    1  UNL1        0.0170
     32 C         142.8269  140.6312  169.1867 C.ar    1  UNL1        0.0309
     33 C         142.6021  142.0633  169.5722 C.ar    1  UNL1        0.1402
     34 F         143.6108  142.7788  170.4210 F       1  UNL1       -0.2042
     35 C         141.3684  142.7799  169.1089 C.ar    1  UNL1        0.0309
     36 C         140.3596  142.0643  168.2601 C.ar    1  UNL1        0.0170
@<TRIPOS>BOND
     1    20    21    1
     2    21    22    2
     3    21    23    2
     4    21    19    1
     5    19     7    1
     6     7     8   ar
     7     8     9   ar
     8     9    13    1
     9    13    14    1
    10    14    15    1
    11    15    16    1
    12    16    17    1
    13    17    18    1
    14     9    10   ar
    15    10    11   ar
    16    11     1    1
    17     1     2   ar
    18     2     3   ar
    19     3     4   ar
    20     4    24    1
    21    24    25   am
    22    25    26    2
    23    25    27   am
    24    27    30    1
    25    30    31   ar
    26    31    32   ar
    27    32    33   ar
    28    33    34    1
    29    33    35   ar
    30    35    36   ar
    31     4     5   ar
    32     5     6   ar
    33    11    12   ar
    34    12     7   ar
    35    18    13    1
    36     6     1   ar
    37    36    30   ar
    38    24    28    1
    39    27    29    1
@<TRIPOS>MOLECULE
*****
 36 39 0 0 0
SMALL
GASTEIGER

@<TRIPOS>ATOM
      1 C         141.2550  138.5985  158.8192 C.ar    1  UNL1        0.0359
      2 C         142.6097  137.9875  158.6164 C.ar    1  UNL1        0.0043
      3 C         142.8340  137.0153  157.4963 C.ar    1  UNL1        0.0148
      4 C         141.7035  136.6542  156.5790 C.ar    1  UNL1        0.0516
      5 C         140.3486  137.2653  156.7818 C.ar    1  UNL1        0.0148
      6 C         140.1244  138.2374  157.9019 C.ar    1  UNL1        0.0043
      7 C         139.4294  141.0743  161.3267 C.ar    1  UNL1        0.0872
      8 C         140.5821  141.5151  162.1793 C.ar    1  UNL1        0.0508
      9 C         141.9591  140.9837  161.9119 C.ar    1  UNL1        0.1347
     10 N         142.1834  140.0115  160.7919 N.ar    1  UNL1       -0.2119
     11 C         141.0307  139.5708  159.9393 C.ar    1  UNL1        0.1633
     12 N         139.6537  140.1022  160.2067 N.ar    1  UNL1       -0.2290
     13 N         143.1118  141.4245  162.7646 N.pl3   1  UNL1       -0.2880
     14 C         144.5167  141.2795  162.2596 C.3     1  UNL1        0.1242
     15 C         145.6694  141.7203  163.1122 C.3     1  UNL1        0.1636
     16 O         145.4172  142.3061  164.4699 O.3     1  UNL1       -0.3501
     17 C         144.0122  142.4511  164.9749 C.3     1  UNL1        0.1636
     18 C         142.8595  142.0103  164.1222 C.3     1  UNL1        0.1242
     19 C         138.0524  141.6057  161.5942 C.3     1  UNL1        0.1963
     20 C         137.7029  144.1747  163.1035 C.3     1  UNL1        0.1765
     21 S         137.8776  142.8902  162.3488 S.O2    1  UNL1       -0.0025
     22 O         138.3171  143.6606  161.1393 O.2     1  UNL1       -0.1726
     23 O         137.4381  142.1197  163.5584 O.2     1  UNL1       -0.1726
     24 N         141.9277  135.6820  155.4589 N.am    1  UNL1       -0.2681
     25 C         142.3248  134.2676  155.7617 C.2     1  UNL1        0.3082
     26 O         142.4978  133.8254  157.1846 O.2     1  UNL1       -0.2522
     27 N         142.5491  133.2954  154.6416 N.am    1  UNL1       -0.2681
     28 H         141.8142  135.9723  154.5250 H       1  UNL1        0.1564
     29 H         142.4356  133.5856  153.7077 H       1  UNL1        0.1564
     30 C         142.9463  131.8810  154.9444 C.ar    1  UNL1        0.0517
     31 C         141.9214  130.7869  154.8934 C.ar    1  UNL1        0.0170
     32 C         142.3186  129.3725  155.1961 C.ar    1  UNL1        0.0309
     33 C         143.7407  129.0522  155.5500 C.ar    1  UNL1        0.1402
     34 F         144.1378  127.6378  155.8528 F       1  UNL1       -0.2042
     35 C         144.7655  130.1463  155.6010 C.ar    1  UNL1        0.0309
     36 C         144.3683  131.5608  155.2982 C.ar    1  UNL1        0.0170
@<TRIPOS>BOND
     1    20    21    1
     2    21    22    2
     3    21    23    2
     4    21    19    1
     5    19     7    1
     6     7     8   ar
     7     8     9   ar
     8     9    13    1
     9    13    14    1
    10    14    15    1
    11    15    16    1
    12    16    17    1
    13    17    18    1
    14     9    10   ar
    15    10    11   ar
    16    11     1    1
    17     1     2   ar
    18     2     3   ar
    19     3     4   ar
    20     4    24    1
    21    24    25   am
    22    25    26    2
    23    25    27   am
    24    27    30    1
    25    30    31   ar
    26    31    32   ar
    27    32    33   ar
    28    33    34    1
    29    33    35   ar
    30    35    36   ar
    31     4     5   ar
    32     5     6   ar
    33    11    12   ar
    34    12     7   ar
    35    18    13    1
    36     6     1   ar
    37    36    30   ar
    38    24    28    1
    39    27    29    1
@<TRIPOS>MOLECULE
*****
 36 39 0 0 0
SMALL
GASTEIGER

@<TRIPOS>ATOM
      1 C         141.3529  142.8321  163.5461 C.ar    1  UNL1        0.0359
      2 C         142.5891  142.8509  162.6968 C.ar    1  UNL1        0.0043
      3 C         142.7001  143.8175  161.5551 C.ar    1  UNL1        0.0148
      4 C         141.5748  144.7653  161.2628 C.ar    1  UNL1        0.0516
      5 C         140.3386  144.7465  162.1123 C.ar    1  UNL1        0.0148
      6 C         140.2276  143.7799  163.2539 C.ar    1  UNL1        0.0043
      7 C         140.8000  139.4600  165.5644 C.ar    1  UNL1        0.0872
      8 C         141.0199  139.9322  166.9710 C.ar    1  UNL1        0.0508
      9 C         141.3507  141.3711  167.2360 C.ar    1  UNL1        0.1347
     10 N         141.4617  142.3377  166.0944 N.ar    1  UNL1       -0.2119
     11 C         141.2419  141.8655  164.6878 C.ar    1  UNL1        0.1633
     12 N         140.9110  140.4266  164.4228 N.ar    1  UNL1       -0.2290
     13 N         141.5706  141.8433  168.6427 N.pl3   1  UNL1       -0.2880
     14 C         142.8886  142.4423  169.0354 C.3     1  UNL1        0.1242
     15 C         143.1085  142.9145  170.4420 C.3     1  UNL1        0.1636
     16 O         142.0104  142.7877  171.4561 O.3     1  UNL1       -0.3501
     17 C         140.6924  142.1886  171.0634 C.3     1  UNL1        0.1636
     18 C         140.4726  141.7164  169.6567 C.3     1  UNL1        0.1242
     19 C         140.4691  138.0211  165.2994 C.3     1  UNL1        0.1963
     20 C         138.5150  137.3046  163.1388 C.3     1  UNL1        0.1765
     21 S         139.4921  137.6629  164.2191 S.O2    1  UNL1       -0.0025
     22 O         140.6176  137.1478  163.3719 O.2     1  UNL1       -0.1726
     23 O         138.3665  138.1780  165.0664 O.2     1  UNL1       -0.1726
     24 N         141.6857  145.7319  160.1212 N.am    1  UNL1       -0.2681
     25 C         141.4209  145.2700  158.7190 C.2     1  UNL1        0.3082
     26 O         141.0452  143.8414  158.4583 O.2     1  UNL1       -0.2522
     27 N         141.5319  146.2366  157.5773 N.am    1  UNL1       -0.2681
     28 H         141.9324  146.6696  160.2923 H       1  UNL1        0.1564
     29 H         141.7785  147.1742  157.7483 H       1  UNL1        0.1564
     30 C         141.2671  145.7746  156.1750 C.ar    1  UNL1        0.0517
     31 C         139.8935  145.9097  155.5876 C.ar    1  UNL1        0.0170
     32 C         139.6287  145.4477  154.1854 C.ar    1  UNL1        0.0309
     33 C         140.7375  144.8506  153.3704 C.ar    1  UNL1        0.1402
     34 F         140.4727  144.3886  151.9681 F       1  UNL1       -0.2042
     35 C         142.1111  144.7155  153.9578 C.ar    1  UNL1        0.0309
     36 C         142.3758  145.1775  155.3601 C.ar    1  UNL1        0.0170
@<TRIPOS>BOND
     1    20    21    1
     2    21    22    2
     3    21    23    2
     4    21    19    1
     5    19     7    1
     6     7     8   ar
     7     8     9   ar
     8     9    13    1
     9    13    14    1
    10    14    15    1
    11    15    16    1
    12    16    17    1
    13    17    18    1
    14     9    10   ar
    15    10    11   ar
    16    11     1    1
    17     1     2   ar
    18     2     3   ar
    19     3     4   ar
    20     4    24    1
    21    24    25   am
    22    25    26    2
    23    25    27   am
    24    27    30    1
    25    30    31   ar
    26    31    32   ar
    27    32    33   ar
    28    33    34    1
    29    33    35   ar
    30    35    36   ar
    31     4     5   ar
    32     5     6   ar
    33    11    12   ar
    34    12     7   ar
    35    18    13    1
    36     6     1   ar
    37    36    30   ar
    38    24    28    1
    39    27    29    1
