@<TRIPOS>MOLECULE
*****
 27 29 0 0 0
SMALL
GASTEIGER

@<TRIPOS>ATOM
      1 N         140.8753  140.6872  167.2760 N.ar    1  UNL1       -0.2465
      2 C         141.2296  139.3889  166.6135 C.ar    1  UNL1        0.1025
      3 C         140.1610  139.0744  165.6090 C.ar    1  UNL1        0.1051
      4 C         139.1462  140.1783  165.6507 C.ar    1  UNL1        0.1578
      5 N         139.5877  141.1750  166.6810 N.ar    1  UNL1       -0.1539
      6 C         141.1841  141.3648  169.7651 C.3     1  UNL1        0.1187
      7 C         141.9780  142.0542  170.8348 C.3     1  UNL1        0.0492
      8 C         143.2571  142.7555  170.4853 C.3     1  UNL1        0.1434
      9 O         143.7423  142.7673  169.0660 O.3     1  UNL1       -0.3516
     10 C         142.9484  142.0779  167.9963 C.3     1  UNL1        0.1674
     11 C         141.6693  141.3766  168.3458 C.3     1  UNL1        0.1488
     12 N         138.6259  139.9624  170.4643 N.1     1  UNL1       -0.1958
     13 C         139.9050  140.6636  170.1147 C.1     1  UNL1        0.0742
     14 C         140.1151  137.8678  164.7190 C.2     1  UNL1        0.2470
     15 N         141.3240  136.9904  164.5822 N.am    1  UNL1       -0.3252
     16 O         138.8604  137.5386  163.9658 O.2     1  UNL1       -0.2702
     17 H         142.1475  137.2064  165.0765 H       1  UNL1        0.1453
     18 H         141.2939  136.1985  163.9980 H       1  UNL1        0.1453
     19 N         137.9074  140.2694  164.8097 N.pl3   1  UNL1       -0.2963
     20 H         137.1102  139.7436  165.0490 H       1  UNL1        0.1537
     21 C         137.8833  141.1616  163.6042 C.ar    1  UNL1        0.0548
     22 C         137.9344  140.5654  162.2287 C.ar    1  UNL1        0.0355
     23 C         137.9103  141.4576  161.0232 C.ar    1  UNL1        0.1026
     24 N         137.8352  142.9461  161.1932 N.ar    1  UNL1       -0.2164
     25 C         137.7841  143.5423  162.5686 C.ar    1  UNL1        0.2236
     26 F         137.7090  145.0308  162.7385 F       1  UNL1       -0.1832
     27 C         137.8082  142.6501  163.7741 C.ar    1  UNL1        0.0643
@<TRIPOS>BOND
     1    12    13    3
     2     6    13    1
     3     6     7    1
     4     7     8    1
     5     8     9    1
     6     9    10    1
     7    10    11    1
     8    11     1    1
     9     1     2   ar
    10     2     3   ar
    11     3    14    1
    12    14    15   am
    13    14    16    2
    14     3     4   ar
    15     4    19    1
    16    19    21    1
    17    21    22   ar
    18    22    23   ar
    19    23    24   ar
    20    24    25   ar
    21    25    26    1
    22    25    27   ar
    23     4     5   ar
    24    11     6    1
    25     5     1   ar
    26    27    21   ar
    27    15    17    1
    28    15    18    1
    29    19    20    1
@<TRIPOS>MOLECULE
*****
 27 29 0 0 0
SMALL
GASTEIGER

@<TRIPOS>ATOM
      1 N         140.1577  142.4634  166.7848 N.ar    1  UNL1       -0.2465
      2 C         139.8440  143.5160  165.7632 C.ar    1  UNL1        0.1025
      3 C         138.9281  142.9112  164.7408 C.ar    1  UNL1        0.1051
      4 C         138.6756  141.4849  165.1305 C.ar    1  UNL1        0.1578
      5 N         139.4355  141.2081  166.3938 N.ar    1  UNL1       -0.1539
      6 C         142.4692  142.1871  167.9382 C.3     1  UNL1        0.1187
      7 C         143.3502  142.3595  169.1399 C.3     1  UNL1        0.0492
      8 C         142.8008  142.9806  170.3898 C.3     1  UNL1        0.1434
      9 O         141.3703  143.4294  170.4381 O.3     1  UNL1       -0.3516
     10 C         140.4893  143.2569  169.2364 C.3     1  UNL1        0.1674
     11 C         141.0388  142.6358  167.9865 C.3     1  UNL1        0.1488
     12 N         143.5681  140.9449  165.4384 N.1     1  UNL1       -0.1958
     13 C         143.0187  141.5660  166.6883 C.1     1  UNL1        0.0742
     14 C         138.3636  143.6101  163.5395 C.2     1  UNL1        0.2470
     15 N         138.8582  144.9759  163.1651 N.am    1  UNL1       -0.3252
     16 O         137.3047  142.9433  162.7126 O.2     1  UNL1       -0.2702
     17 H         139.5533  145.4136  163.7079 H       1  UNL1        0.1453
     18 H         138.4878  145.4345  162.3767 H       1  UNL1        0.1453
     19 N         137.8144  140.5070  164.3875 N.pl3   1  UNL1       -0.2963
     20 H         136.8439  140.4821  164.5512 H       1  UNL1        0.1537
     21 C         138.4318  139.5671  163.3948 C.ar    1  UNL1        0.0548
     22 C         138.0164  139.6184  161.9544 C.ar    1  UNL1        0.0355
     23 C         138.6339  138.6785  160.9619 C.ar    1  UNL1        0.1026
     24 N         139.6667  137.6873  161.4097 N.ar    1  UNL1       -0.2164
     25 C         140.0822  137.6359  162.8500 C.ar    1  UNL1        0.2236
     26 F         141.1151  136.6446  163.2978 F       1  UNL1       -0.1832
     27 C         139.4647  138.5759  163.8427 C.ar    1  UNL1        0.0643
@<TRIPOS>BOND
     1    12    13    3
     2     6    13    1
     3     6     7    1
     4     7     8    1
     5     8     9    1
     6     9    10    1
     7    10    11    1
     8    11     1    1
     9     1     2   ar
    10     2     3   ar
    11     3    14    1
    12    14    15   am
    13    14    16    2
    14     3     4   ar
    15     4    19    1
    16    19    21    1
    17    21    22   ar
    18    22    23   ar
    19    23    24   ar
    20    24    25   ar
    21    25    26    1
    22    25    27   ar
    23     4     5   ar
    24    11     6    1
    25     5     1   ar
    26    27    21   ar
    27    15    17    1
    28    15    18    1
    29    19    20    1
@<TRIPOS>MOLECULE
*****
 27 29 0 0 0
SMALL
GASTEIGER

@<TRIPOS>ATOM
      1 N         139.1773  140.7796  164.2952 N.ar    1  UNL1       -0.2465
      2 C         138.1546  140.0708  165.1328 C.ar    1  UNL1        0.1025
      3 C         138.8007  139.6945  166.4332 C.ar    1  UNL1        0.1051
      4 C         140.2227  140.1709  166.3993 C.ar    1  UNL1        0.1578
      5 N         140.4554  140.8414  165.0778 N.ar    1  UNL1       -0.1539
      6 C         139.2479  140.4792  161.7155 C.3     1  UNL1        0.1187
      7 C         139.0306  141.0296  160.3371 C.3     1  UNL1        0.0492
      8 C         138.5254  142.4308  160.1601 C.3     1  UNL1        0.1434
      9 O         138.2375  143.2816  161.3614 O.3     1  UNL1       -0.3516
     10 C         138.4548  142.7312  162.7397 C.3     1  UNL1        0.1674
     11 C         138.9600  141.3300  162.9167 C.3     1  UNL1        0.1488
     12 N         140.2584  137.6767  162.0695 N.1     1  UNL1       -0.1958
     13 C         139.7531  139.0779  161.8925 C.1     1  UNL1        0.0742
     14 C         138.1407  138.9693  167.5683 C.2     1  UNL1        0.2470
     15 N         137.2429  137.8002  167.2905 N.am    1  UNL1       -0.3252
     16 O         138.3785  139.4132  168.9813 O.2     1  UNL1       -0.2702
     17 H         137.0868  137.5089  166.3632 H       1  UNL1        0.1453
     18 H         136.8097  137.3243  168.0355 H       1  UNL1        0.1453
     19 N         141.2343  140.0056  167.4944 N.pl3   1  UNL1       -0.2963
     20 H         141.6730  139.1350  167.6320 H       1  UNL1        0.1537
     21 C         141.5775  141.1667  168.3798 C.ar    1  UNL1        0.0548
     22 C         140.5056  142.1228  168.8121 C.ar    1  UNL1        0.0355
     23 C         140.8488  143.2838  169.6975 C.ar    1  UNL1        0.1026
     24 N         142.2639  143.4888  170.1507 N.ar    1  UNL1       -0.2164
     25 C         143.3358  142.5328  169.7185 C.ar    1  UNL1        0.2236
     26 F         144.7510  142.7378  170.1717 F       1  UNL1       -0.1832
     27 C         142.9926  141.3717  168.8330 C.ar    1  UNL1        0.0643
@<TRIPOS>BOND
     1    12    13    3
     2     6    13    1
     3     6     7    1
     4     7     8    1
     5     8     9    1
     6     9    10    1
     7    10    11    1
     8    11     1    1
     9     1     2   ar
    10     2     3   ar
    11     3    14    1
    12    14    15   am
    13    14    16    2
    14     3     4   ar
    15     4    19    1
    16    19    21    1
    17    21    22   ar
    18    22    23   ar
    19    23    24   ar
    20    24    25   ar
    21    25    26    1
    22    25    27   ar
    23     4     5   ar
    24    11     6    1
    25     5     1   ar
    26    27    21   ar
    27    15    17    1
    28    15    18    1
    29    19    20    1
@<TRIPOS>MOLECULE
*****
 27 29 0 0 0
SMALL
GASTEIGER

@<TRIPOS>ATOM
      1 N         139.7836  142.0657  164.4708 N.ar    1  UNL1       -0.2465
      2 C         138.9389  140.8262  164.4567 C.ar    1  UNL1        0.1025
      3 C         139.1297  140.1203  165.7664 C.ar    1  UNL1        0.1051
      4 C         140.0923  140.9235  166.5900 C.ar    1  UNL1        0.1578
      5 N         140.4964  142.1259  165.7893 N.ar    1  UNL1       -0.1539
      6 C         139.4299  144.4787  163.5749 C.3     1  UNL1        0.1187
      7 C         139.5421  145.4818  162.4654 C.3     1  UNL1        0.0492
      8 C         140.1202  145.0753  161.1423 C.3     1  UNL1        0.1434
      9 O         140.5860  143.6656  160.9287 O.3     1  UNL1       -0.3516
     10 C         140.4738  142.6624  162.0382 C.3     1  UNL1        0.1674
     11 C         139.8958  143.0690  163.3613 C.3     1  UNL1        0.1488
     12 N         138.2739  145.2917  166.2211 N.1     1  UNL1       -0.1958
     13 C         138.8519  144.8852  164.8980 C.1     1  UNL1        0.0742
     14 C         138.4732  138.8366  166.1799 C.2     1  UNL1        0.2470
     15 N         138.4863  137.6556  165.2551 N.am    1  UNL1       -0.3252
     16 O         137.8035  138.7338  167.5181 O.2     1  UNL1       -0.2702
     17 H         138.9259  137.7230  164.3768 H       1  UNL1        0.1453
     18 H         138.0554  136.8130  165.5265 H       1  UNL1        0.1453
     19 N         140.5673  140.5841  167.9717 N.pl3   1  UNL1       -0.2963
     20 H         140.4319  139.6771  168.3298 H       1  UNL1        0.1537
     21 C         141.2488  141.6265  168.8077 C.ar    1  UNL1        0.0548
     22 C         140.4542  142.7568  169.3917 C.ar    1  UNL1        0.0355
     23 C         141.1357  143.7991  170.2277 C.ar    1  UNL1        0.1026
     24 N         142.6118  143.7113  170.4797 N.ar    1  UNL1       -0.2164
     25 C         143.4063  142.5810  169.8957 C.ar    1  UNL1        0.2236
     26 F         144.8825  142.4932  170.1477 F       1  UNL1       -0.1832
     27 C         142.7249  141.5386  169.0597 C.ar    1  UNL1        0.0643
@<TRIPOS>BOND
     1    12    13    3
     2     6    13    1
     3     6     7    1
     4     7     8    1
     5     8     9    1
     6     9    10    1
     7    10    11    1
     8    11     1    1
     9     1     2   ar
    10     2     3   ar
    11     3    14    1
    12    14    15   am
    13    14    16    2
    14     3     4   ar
    15     4    19    1
    16    19    21    1
    17    21    22   ar
    18    22    23   ar
    19    23    24   ar
    20    24    25   ar
    21    25    26    1
    22    25    27   ar
    23     4     5   ar
    24    11     6    1
    25     5     1   ar
    26    27    21   ar
    27    15    17    1
    28    15    18    1
    29    19    20    1
@<TRIPOS>MOLECULE
*****
 27 29 0 0 0
SMALL
GASTEIGER

@<TRIPOS>ATOM
      1 N         142.3100  141.2816  166.5978 N.ar    1  UNL1       -0.2465
      2 C         143.2490  140.3786  165.8543 C.ar    1  UNL1        0.1025
      3 C         143.8992  141.1805  164.7662 C.ar    1  UNL1        0.1051
      4 C         143.3621  142.5793  164.8371 C.ar    1  UNL1        0.1578
      5 N         142.3799  142.6418  165.9691 N.ar    1  UNL1       -0.1539
      6 C         141.8626  141.2716  169.1570 C.3     1  UNL1        0.1187
      7 C         141.0044  140.8829  170.3242 C.3     1  UNL1        0.0492
      8 C         139.7353  140.1154  170.0993 C.3     1  UNL1        0.1434
      9 O         139.3245  139.7367  168.7073 O.3     1  UNL1       -0.3516
     10 C         140.1827  140.1255  167.5401 C.3     1  UNL1        0.1674
     11 C         141.4518  140.8929  167.7650 C.3     1  UNL1        0.1488
     12 N         144.4007  142.8065  169.6068 N.1     1  UNL1       -0.1958
     13 C         143.1316  142.0391  169.3819 C.1     1  UNL1        0.0742
     14 C         144.9093  140.6728  163.7802 C.2     1  UNL1        0.2470
     15 N         144.9047  139.2276  163.3786 N.am    1  UNL1       -0.3252
     16 O         145.9238  141.6104  163.1958 O.2     1  UNL1       -0.2702
     17 H         144.2388  138.6122  163.7622 H       1  UNL1        0.1453
     18 H         145.5677  138.8944  162.7315 H       1  UNL1        0.1453
     19 N         143.7406  143.7159  163.9345 N.pl3   1  UNL1       -0.2963
     20 H         144.5856  144.1998  164.0801 H       1  UNL1        0.1537
     21 C         142.8319  144.1153  162.8100 C.ar    1  UNL1        0.0548
     22 C         143.0453  143.5511  161.4366 C.ar    1  UNL1        0.0355
     23 C         142.1365  143.9506  160.3122 C.ar    1  UNL1        0.1026
     24 N         141.0143  144.9142  160.5610 N.ar    1  UNL1       -0.2164
     25 C         140.8008  145.4784  161.9343 C.ar    1  UNL1        0.2236
     26 F         139.6785  146.4421  162.1831 F       1  UNL1       -0.1832
     27 C         141.7096  145.0790  163.0588 C.ar    1  UNL1        0.0643
@<TRIPOS>BOND
     1    12    13    3
     2     6    13    1
     3     6     7    1
     4     7     8    1
     5     8     9    1
     6     9    10    1
     7    10    11    1
     8    11     1    1
     9     1     2   ar
    10     2     3   ar
    11     3    14    1
    12    14    15   am
    13    14    16    2
    14     3     4   ar
    15     4    19    1
    16    19    21    1
    17    21    22   ar
    18    22    23   ar
    19    23    24   ar
    20    24    25   ar
    21    25    26    1
    22    25    27   ar
    23     4     5   ar
    24    11     6    1
    25     5     1   ar
    26    27    21   ar
    27    15    17    1
    28    15    18    1
    29    19    20    1
@<TRIPOS>MOLECULE
*****
 27 29 0 0 0
SMALL
GASTEIGER

@<TRIPOS>ATOM
      1 N         139.3894  140.2249  165.7076 N.ar    1  UNL1       -0.2465
      2 C         139.1530  139.1582  164.6798 C.ar    1  UNL1        0.1025
      3 C         138.4317  139.7819  163.5220 C.ar    1  UNL1        0.1051
      4 C         138.2223  141.2341  163.8341 C.ar    1  UNL1        0.1578
      5 N         138.8142  141.5078  165.1849 N.ar    1  UNL1       -0.1539
      6 C         141.5776  139.9910  167.0885 C.3     1  UNL1        0.1187
      7 C         142.2680  139.8070  168.4074 C.3     1  UNL1        0.0492
      8 C         141.4604  139.6730  169.6644 C.3     1  UNL1        0.1434
      9 O         139.9626  139.7229  169.6024 O.3     1  UNL1       -0.3516
     10 C         139.2723  139.9068  168.2835 C.3     1  UNL1        0.1674
     11 C         140.0798  140.0409  167.0266 C.3     1  UNL1        0.1488
     12 N         143.1927  140.2591  164.5746 N.1     1  UNL1       -0.1958
     13 C         142.3852  140.1250  165.8316 C.1     1  UNL1        0.0742
     14 C         137.9962  139.0772  162.2714 C.2     1  UNL1        0.2470
     15 N         138.2984  137.6195  162.0880 N.am    1  UNL1       -0.3252
     16 O         137.2586  139.8303  161.2043 O.2     1  UNL1       -0.2702
     17 H         138.7826  137.1252  162.7884 H       1  UNL1        0.1453
     18 H         138.0126  137.1570  161.2672 H       1  UNL1        0.1453
     19 N         137.5407  142.2365  162.9506 N.pl3   1  UNL1       -0.2963
     20 H         136.5580  142.2968  162.9414 H       1  UNL1        0.1537
     21 C         138.3562  143.1470  162.0812 C.ar    1  UNL1        0.0548
     22 C         138.7867  142.6947  160.7173 C.ar    1  UNL1        0.0355
     23 C         139.6022  143.6053  159.8480 C.ar    1  UNL1        0.1026
     24 N         139.9872  144.9680  160.3425 N.ar    1  UNL1       -0.2164
     25 C         139.5568  145.4203  161.7063 C.ar    1  UNL1        0.2236
     26 F         139.9419  146.7832  162.2008 F       1  UNL1       -0.1832
     27 C         138.7412  144.5098  162.5757 C.ar    1  UNL1        0.0643
@<TRIPOS>BOND
     1    12    13    3
     2     6    13    1
     3     6     7    1
     4     7     8    1
     5     8     9    1
     6     9    10    1
     7    10    11    1
     8    11     1    1
     9     1     2   ar
    10     2     3   ar
    11     3    14    1
    12    14    15   am
    13    14    16    2
    14     3     4   ar
    15     4    19    1
    16    19    21    1
    17    21    22   ar
    18    22    23   ar
    19    23    24   ar
    20    24    25   ar
    21    25    26    1
    22    25    27   ar
    23     4     5   ar
    24    11     6    1
    25     5     1   ar
    26    27    21   ar
    27    15    17    1
    28    15    18    1
    29    19    20    1
@<TRIPOS>MOLECULE
*****
 27 29 0 0 0
SMALL
GASTEIGER

@<TRIPOS>ATOM
      1 N         140.7714  139.9819  166.8508 N.ar    1  UNL1       -0.2465
      2 C         141.1499  138.8445  165.9491 C.ar    1  UNL1        0.1025
      3 C         140.1090  138.7389  164.8743 C.ar    1  UNL1        0.1051
      4 C         139.0871  139.8111  165.1117 C.ar    1  UNL1        0.1578
      5 N         139.4965  140.5793  166.3333 N.ar    1  UNL1       -0.1539
      6 C         142.5603  141.5274  167.9286 C.3     1  UNL1        0.1187
      7 C         143.3227  141.9867  169.1359 C.3     1  UNL1        0.0492
      8 C         143.0587  141.3599  170.4728 C.3     1  UNL1        0.1434
      9 O         142.0324  140.2738  170.6025 O.3     1  UNL1       -0.3516
     10 C         141.2700  139.8145  169.3952 C.3     1  UNL1        0.1674
     11 C         141.5339  140.4413  168.0582 C.3     1  UNL1        0.1488
     12 N         143.0882  142.7810  165.2546 N.1     1  UNL1       -0.1958
     13 C         142.8242  142.1542  166.5916 C.1     1  UNL1        0.0742
     14 C         140.0928  137.7371  163.7579 C.2     1  UNL1        0.2470
     15 N         141.3533  137.0193  163.3760 N.am    1  UNL1       -0.3252
     16 O         138.8160  137.4531  163.0236 O.2     1  UNL1       -0.2702
     17 H         142.1912  137.2057  163.8579 H       1  UNL1        0.1453
     18 H         141.3426  136.3618  162.6433 H       1  UNL1        0.1453
     19 N         137.8696  140.0697  164.2745 N.pl3   1  UNL1       -0.2963
     20 H         137.0413  139.5643  164.4410 H       1  UNL1        0.1537
     21 C         137.9143  141.0982  163.1835 C.ar    1  UNL1        0.0548
     22 C         138.0648  140.6693  161.7541 C.ar    1  UNL1        0.0355
     23 C         138.1094  141.6978  160.6632 C.ar    1  UNL1        0.1026
     24 N         138.0035  143.1552  161.0018 N.ar    1  UNL1       -0.2164
     25 C         137.8529  143.5841  162.4312 C.ar    1  UNL1        0.2236
     26 F         137.7470  145.0417  162.7697 F       1  UNL1       -0.1832
     27 C         137.8083  142.5556  163.5221 C.ar    1  UNL1        0.0643
@<TRIPOS>BOND
     1    12    13    3
     2     6    13    1
     3     6     7    1
     4     7     8    1
     5     8     9    1
     6     9    10    1
     7    10    11    1
     8    11     1    1
     9     1     2   ar
    10     2     3   ar
    11     3    14    1
    12    14    15   am
    13    14    16    2
    14     3     4   ar
    15     4    19    1
    16    19    21    1
    17    21    22   ar
    18    22    23   ar
    19    23    24   ar
    20    24    25   ar
    21    25    26    1
    22    25    27   ar
    23     4     5   ar
    24    11     6    1
    25     5     1   ar
    26    27    21   ar
    27    15    17    1
    28    15    18    1
    29    19    20    1
@<TRIPOS>MOLECULE
*****
 27 29 0 0 0
SMALL
GASTEIGER

@<TRIPOS>ATOM
      1 N         140.5856  141.5631  167.1104 N.ar    1  UNL1       -0.2465
      2 C         140.7667  142.8752  166.4064 C.ar    1  UNL1        0.1025
      3 C         139.7342  142.9658  165.3221 C.ar    1  UNL1        0.1051
      4 C         138.9149  141.7098  165.3560 C.ar    1  UNL1        0.1578
      5 N         139.4411  140.8429  166.4612 N.ar    1  UNL1       -0.1539
      6 C         141.4694  141.8463  169.5371 C.3     1  UNL1        0.1187
      7 C         142.2888  141.3428  170.6882 C.3     1  UNL1        0.0492
      8 C         143.0439  140.0527  170.5637 C.3     1  UNL1        0.1434
      9 O         142.9795  139.2660  169.2882 O.3     1  UNL1       -0.3516
     10 C         142.1600  139.7695  168.1371 C.3     1  UNL1        0.1674
     11 C         141.4050  141.0597  168.2616 C.3     1  UNL1        0.1488
     12 N         139.9593  144.4266  169.7860 N.1     1  UNL1       -0.1958
     13 C         140.7144  143.1364  169.6616 C.1     1  UNL1        0.0742
     14 C         139.5529  144.1114  164.3709 C.2     1  UNL1        0.2470
     15 N         140.6683  145.0908  164.1550 N.am    1  UNL1       -0.3252
     16 O         138.2561  144.2776  163.6356 O.2     1  UNL1       -0.2702
     17 H         141.5194  144.9818  164.6376 H       1  UNL1        0.1453
     18 H         140.5492  145.8427  163.5307 H       1  UNL1        0.1453
     19 N         137.7704  141.3788  164.4447 N.pl3   1  UNL1       -0.2963
     20 H         136.8968  141.8140  164.5735 H       1  UNL1        0.1537
     21 C         137.9570  140.3846  163.3370 C.ar    1  UNL1        0.0548
     22 C         138.5061  139.0214  163.6374 C.ar    1  UNL1        0.0355
     23 C         138.6927  138.0274  162.5297 C.ar    1  UNL1        0.1026
     24 N         138.3301  138.3964  161.1218 N.ar    1  UNL1       -0.2164
     25 C         137.7810  139.7595  160.8215 C.ar    1  UNL1        0.2236
     26 F         137.4183  140.1285  159.4134 F       1  UNL1       -0.1832
     27 C         137.5944  140.7537  161.9291 C.ar    1  UNL1        0.0643
@<TRIPOS>BOND
     1    12    13    3
     2     6    13    1
     3     6     7    1
     4     7     8    1
     5     8     9    1
     6     9    10    1
     7    10    11    1
     8    11     1    1
     9     1     2   ar
    10     2     3   ar
    11     3    14    1
    12    14    15   am
    13    14    16    2
    14     3     4   ar
    15     4    19    1
    16    19    21    1
    17    21    22   ar
    18    22    23   ar
    19    23    24   ar
    20    24    25   ar
    21    25    26    1
    22    25    27   ar
    23     4     5   ar
    24    11     6    1
    25     5     1   ar
    26    27    21   ar
    27    15    17    1
    28    15    18    1
    29    19    20    1
@<TRIPOS>MOLECULE
*****
 27 29 0 0 0
SMALL
GASTEIGER

@<TRIPOS>ATOM
      1 N         140.8317  141.7450  167.0396 N.ar    1  UNL1       -0.2465
      2 C         139.6160  141.2462  166.3163 C.ar    1  UNL1        0.1025
      3 C         139.2605  142.2502  165.2602 C.ar    1  UNL1        0.1051
      4 C         140.2565  143.3697  165.3307 C.ar    1  UNL1        0.1578
      5 N         141.2275  143.0574  166.4305 N.ar    1  UNL1       -0.1539
      6 C         141.5415  141.6751  169.5379 C.3     1  UNL1        0.1187
      7 C         142.2390  140.9830  170.6713 C.3     1  UNL1        0.0492
      8 C         142.9242  139.6689  170.4398 C.3     1  UNL1        0.1434
      9 O         142.9120  139.0468  169.0750 O.3     1  UNL1       -0.3516
     10 C         142.2145  139.7389  167.9416 C.3     1  UNL1        0.1674
     11 C         141.5293  141.0530  168.1731 C.3     1  UNL1        0.1488
     12 N         140.1711  144.3033  170.0008 N.1     1  UNL1       -0.1958
     13 C         140.8563  142.9892  169.7694 C.1     1  UNL1        0.0742
     14 C         138.1108  142.1521  164.3018 C.2     1  UNL1        0.2470
     15 N         137.4823  140.8200  164.0182 N.am    1  UNL1       -0.3252
     16 O         137.5895  143.3861  163.6269 O.2     1  UNL1       -0.2702
     17 H         137.8243  140.0100  164.4612 H       1  UNL1        0.1453
     18 H         136.7277  140.7556  163.3892 H       1  UNL1        0.1453
     19 N         140.2776  144.5875  164.4553 N.pl3   1  UNL1       -0.2963
     20 H         139.8609  145.4238  164.7652 H       1  UNL1        0.1537
     21 C         140.9338  144.5310  163.1076 C.ar    1  UNL1        0.0548
     22 C         142.2500  143.8305  162.9430 C.ar    1  UNL1        0.0355
     23 C         142.9061  143.7741  161.5953 C.ar    1  UNL1        0.1026
     24 N         142.2460  144.4180  160.4123 N.ar    1  UNL1       -0.2164
     25 C         140.9299  145.1184  160.5768 C.ar    1  UNL1        0.2236
     26 F         140.2699  145.7623  159.3937 F       1  UNL1       -0.1832
     27 C         140.2738  145.1749  161.9245 C.ar    1  UNL1        0.0643
@<TRIPOS>BOND
     1    12    13    3
     2     6    13    1
     3     6     7    1
     4     7     8    1
     5     8     9    1
     6     9    10    1
     7    10    11    1
     8    11     1    1
     9     1     2   ar
    10     2     3   ar
    11     3    14    1
    12    14    15   am
    13    14    16    2
    14     3     4   ar
    15     4    19    1
    16    19    21    1
    17    21    22   ar
    18    22    23   ar
    19    23    24   ar
    20    24    25   ar
    21    25    26    1
    22    25    27   ar
    23     4     5   ar
    24    11     6    1
    25     5     1   ar
    26    27    21   ar
    27    15    17    1
    28    15    18    1
    29    19    20    1
