@<TRIPOS>MOLECULE
*****
 29 31 0 0 0
SMALL
GASTEIGER

@<TRIPOS>ATOM
      1 C         140.2061  138.5587  163.3323 C.ar    1  UNL1        0.0193
      2 C         138.9487  137.8060  163.6522 C.ar    1  UNL1        0.1002
      3 N         138.3475  137.8986  165.0234 N.ar    1  UNL1       -0.2296
      4 C         139.0037  138.7439  166.0745 C.ar    1  UNL1        0.1254
      5 N         138.4025  138.8364  167.4456 N.pl3   1  UNL1       -0.3426
      6 C         140.2610  139.4965  165.7545 C.ar    1  UNL1        0.0327
      7 C         140.8623  139.4040  164.3834 C.ar    1  UNL1        0.0044
      8 H         137.5772  138.3424  167.6556 H       1  UNL1        0.1437
      9 H         138.8331  139.3912  168.1355 H       1  UNL1        0.1437
     10 C         142.0097  138.2810  159.2189 C.ar    1  UNL1        0.1057
     11 C         142.8129  137.8754  160.4190 C.ar    1  UNL1        0.0183
     12 C         142.2117  137.9679  161.7901 C.ar    1  UNL1        0.0014
     13 C         140.8073  138.4662  161.9611 C.ar    1  UNL1        0.0016
     14 C         140.0041  138.8719  160.7611 C.ar    1  UNL1        0.0014
     15 C         140.6053  138.7793  159.3899 C.ar    1  UNL1        0.0183
     16 C         143.2121  138.0959  156.4766 C.3     1  UNL1        0.1816
     17 S         142.6109  138.1885  157.8478 S.O2    1  UNL1        0.0104
     18 O         141.4459  137.3604  157.3928 O.2     1  UNL1       -0.1686
     19 O         143.7760  139.0165  158.3027 O.2     1  UNL1       -0.1686
     20 C         140.9173  140.3419  166.8057 C.ar    1  UNL1        0.0218
     21 C         140.4277  141.7367  167.0599 C.ar    1  UNL1        0.0031
     22 C         141.0838  142.5820  168.1110 C.ar    1  UNL1        0.0231
     23 C         142.2297  142.0325  168.9080 C.ar    1  UNL1        0.1526
     24 N         142.7193  140.6376  168.6538 N.ar    1  UNL1       -0.2399
     25 C         142.0630  139.7923  167.6026 C.ar    1  UNL1        0.0988
     26 C         142.8858  142.8778  169.9591 C.3     1  UNL1        0.4348
     27 F         143.5420  143.7231  171.0102 F       1  UNL1       -0.1644
     28 F         144.1090  142.0122  169.8916 F       1  UNL1       -0.1644
     29 F         141.6627  143.7434  170.0266 F       1  UNL1       -0.1644
@<TRIPOS>BOND
     1    16    17    1
     2    17    18    2
     3    17    19    2
     4    17    10    1
     5    10    11   ar
     6    11    12   ar
     7    12    13   ar
     8    13     1    1
     9     1     2   ar
    10     2     3   ar
    11     3     4   ar
    12     4     5    1
    13     4     6   ar
    14     6    20    1
    15    20    21   ar
    16    21    22   ar
    17    22    23   ar
    18    23    26    1
    19    26    27    1
    20    26    28    1
    21    26    29    1
    22    23    24   ar
    23    24    25   ar
    24     6     7   ar
    25    13    14   ar
    26    14    15   ar
    27    15    10   ar
    28     7     1   ar
    29    25    20   ar
    30     5     8    1
    31     5     9    1
@<TRIPOS>MOLECULE
*****
 29 31 0 0 0
SMALL
GASTEIGER

@<TRIPOS>ATOM
      1 C         139.4943  139.4007  160.4906 C.ar    1  UNL1        0.0193
      2 C         138.2532  140.0943  160.0125 C.ar    1  UNL1        0.1002
      3 N         137.3422  140.7653  160.9973 N.ar    1  UNL1       -0.2296
      4 C         137.6724  140.7427  162.4603 C.ar    1  UNL1        0.1254
      5 N         136.7614  141.4137  163.4452 N.pl3   1  UNL1       -0.3426
      6 C         138.9134  140.0492  162.9385 C.ar    1  UNL1        0.0327
      7 C         139.8244  139.3782  161.9537 C.ar    1  UNL1        0.0044
      8 H         135.9468  141.8689  163.1313 H       1  UNL1        0.1437
      9 H         136.9781  141.3990  164.4054 H       1  UNL1        0.1437
     10 C         142.2272  137.3877  157.5361 C.ar    1  UNL1        0.1057
     11 C         142.7300  137.7373  158.9054 C.ar    1  UNL1        0.0183
     12 C         141.8190  138.4083  159.8902 C.ar    1  UNL1        0.0014
     13 C         140.4052  138.7297  159.5058 C.ar    1  UNL1        0.0016
     14 C         139.9024  138.3802  158.1365 C.ar    1  UNL1        0.0014
     15 C         140.8134  137.7092  157.1517 C.ar    1  UNL1        0.0183
     16 C         144.0491  136.0457  155.5664 C.3     1  UNL1        0.1816
     17 S         143.1381  136.7167  156.5513 S.O2    1  UNL1        0.0104
     18 O         142.3913  135.4293  156.7377 O.2     1  UNL1       -0.1686
     19 O         143.8849  138.0042  156.3649 O.2     1  UNL1       -0.1686
     20 C         139.2436  140.0267  164.4016 C.ar    1  UNL1        0.0218
     21 C         140.3971  140.8316  164.9226 C.ar    1  UNL1        0.0031
     22 C         140.7273  140.8091  166.3856 C.ar    1  UNL1        0.0231
     23 C         139.9040  139.9816  167.3277 C.ar    1  UNL1        0.1526
     24 N         138.7505  139.1766  166.8067 N.ar    1  UNL1       -0.2399
     25 C         138.4203  139.1992  165.3436 C.ar    1  UNL1        0.0988
     26 C         140.2342  139.9591  168.7907 C.3     1  UNL1        0.4348
     27 F         140.5644  139.9366  170.2537 F       1  UNL1       -0.1644
     28 F         141.6965  139.9115  168.4599 F       1  UNL1       -0.1644
     29 F         138.7719  140.0067  169.1214 F       1  UNL1       -0.1644
@<TRIPOS>BOND
     1    16    17    1
     2    17    18    2
     3    17    19    2
     4    17    10    1
     5    10    11   ar
     6    11    12   ar
     7    12    13   ar
     8    13     1    1
     9     1     2   ar
    10     2     3   ar
    11     3     4   ar
    12     4     5    1
    13     4     6   ar
    14     6    20    1
    15    20    21   ar
    16    21    22   ar
    17    22    23   ar
    18    23    26    1
    19    26    27    1
    20    26    28    1
    21    26    29    1
    22    23    24   ar
    23    24    25   ar
    24     6     7   ar
    25    13    14   ar
    26    14    15   ar
    27    15    10   ar
    28     7     1   ar
    29    25    20   ar
    30     5     8    1
    31     5     9    1
@<TRIPOS>MOLECULE
*****
 29 31 0 0 0
SMALL
GASTEIGER

@<TRIPOS>ATOM
      1 C         139.4034  140.6585  161.2879 C.ar    1  UNL1        0.0193
      2 C         138.3905  141.6883  160.8837 C.ar    1  UNL1        0.1002
      3 N         137.6180  142.4326  161.9323 N.ar    1  UNL1       -0.2296
      4 C         137.8585  142.1470  163.3851 C.ar    1  UNL1        0.1254
      5 N         137.0861  142.8913  164.4336 N.pl3   1  UNL1       -0.3426
      6 C         138.8714  141.1172  163.7893 C.ar    1  UNL1        0.0327
      7 C         139.6438  140.3729  162.7407 C.ar    1  UNL1        0.0044
      8 H         136.4213  143.5672  164.1683 H       1  UNL1        0.1437
      9 H         137.2440  142.7038  165.3871 H       1  UNL1        0.1437
     10 C         141.7206  138.4257  158.1423 C.ar    1  UNL1        0.1057
     11 C         142.4470  139.2267  159.1818 C.ar    1  UNL1        0.0183
     12 C         141.6746  139.9710  160.2303 C.ar    1  UNL1        0.0014
     13 C         140.1758  139.9142  160.2394 C.ar    1  UNL1        0.0016
     14 C         139.4493  139.1132  159.1999 C.ar    1  UNL1        0.0014
     15 C         140.2217  138.3690  158.1514 C.ar    1  UNL1        0.0183
     16 C         143.2654  136.9372  156.0452 C.3     1  UNL1        0.1816
     17 S         142.4930  137.6815  157.0937 S.O2    1  UNL1        0.0104
     18 O         143.6755  138.5731  157.3319 O.2     1  UNL1       -0.1686
     19 O         141.3105  136.7898  156.8556 O.2     1  UNL1       -0.1686
     20 C         139.1120  140.8315  165.2421 C.ar    1  UNL1        0.0218
     21 C         138.4412  139.6608  165.8973 C.ar    1  UNL1        0.0031
     22 C         138.6817  139.3751  167.3501 C.ar    1  UNL1        0.0231
     23 C         139.5930  140.2603  168.1477 C.ar    1  UNL1        0.1526
     24 N         140.2638  141.4311  167.4924 N.ar    1  UNL1       -0.2399
     25 C         140.0232  141.7167  166.0396 C.ar    1  UNL1        0.0988
     26 C         139.8335  139.9746  169.6004 C.3     1  UNL1        0.4348
     27 F         140.0740  139.6890  171.0532 F       1  UNL1       -0.1644
     28 F         138.4498  140.4547  169.9239 F       1  UNL1       -0.1644
     29 F         141.2173  139.4945  169.2769 F       1  UNL1       -0.1644
@<TRIPOS>BOND
     1    16    17    1
     2    17    18    2
     3    17    19    2
     4    17    10    1
     5    10    11   ar
     6    11    12   ar
     7    12    13   ar
     8    13     1    1
     9     1     2   ar
    10     2     3   ar
    11     3     4   ar
    12     4     5    1
    13     4     6   ar
    14     6    20    1
    15    20    21   ar
    16    21    22   ar
    17    22    23   ar
    18    23    26    1
    19    26    27    1
    20    26    28    1
    21    26    29    1
    22    23    24   ar
    23    24    25   ar
    24     6     7   ar
    25    13    14   ar
    26    14    15   ar
    27    15    10   ar
    28     7     1   ar
    29    25    20   ar
    30     5     8    1
    31     5     9    1
@<TRIPOS>MOLECULE
*****
 29 31 0 0 0
SMALL
GASTEIGER

@<TRIPOS>ATOM
      1 C         139.2538  141.9513  163.7846 C.ar    1  UNL1        0.0193
      2 C         137.8794  142.3246  163.3138 C.ar    1  UNL1        0.1002
      3 N         137.6550  142.7038  161.8800 N.ar    1  UNL1       -0.2296
      4 C         138.8049  142.7097  160.9169 C.ar    1  UNL1        0.1254
      5 N         138.5805  143.0889  159.4831 N.pl3   1  UNL1       -0.3426
      6 C         140.1793  142.3363  161.3877 C.ar    1  UNL1        0.0327
      7 C         140.4037  141.9571  162.8215 C.ar    1  UNL1        0.0044
      8 H         137.6784  143.3340  159.1742 H       1  UNL1        0.1437
      9 H         139.3353  143.0928  158.8510 H       1  UNL1        0.1437
     10 C         139.9271  140.8136  168.0860 C.ar    1  UNL1        0.1057
     11 C         140.4024  142.1426  167.5785 C.ar    1  UNL1        0.0183
     12 C         140.1780  142.5218  166.1447 C.ar    1  UNL1        0.0014
     13 C         139.4782  141.5720  165.2184 C.ar    1  UNL1        0.0016
     14 C         139.0028  140.2430  165.7259 C.ar    1  UNL1        0.0014
     15 C         139.2273  139.8638  167.1597 C.ar    1  UNL1        0.0183
     16 C         140.3759  140.0551  170.9536 C.3     1  UNL1        0.1816
     17 S         140.1515  140.4344  169.5198 S.O2    1  UNL1        0.0104
     18 O         138.8061  139.7720  169.5552 O.2     1  UNL1       -0.1686
     19 O         141.4969  141.0967  169.4844 O.2     1  UNL1       -0.1686
     20 C         141.3293  142.3422  160.4246 C.ar    1  UNL1        0.0218
     21 C         141.7256  141.0776  159.7220 C.ar    1  UNL1        0.0031
     22 C         142.8756  141.0834  158.7589 C.ar    1  UNL1        0.0231
     23 C         143.6294  142.3539  158.4985 C.ar    1  UNL1        0.1526
     24 N         143.2331  143.6185  159.2011 N.ar    1  UNL1       -0.2399
     25 C         142.0831  143.6126  160.1642 C.ar    1  UNL1        0.0988
     26 C         144.7793  142.3597  157.5354 C.3     1  UNL1        0.4348
     27 F         145.9293  142.3655  156.5724 F       1  UNL1       -0.1644
     28 F         145.7021  142.7822  158.6399 F       1  UNL1       -0.1644
     29 F         143.8565  141.9371  156.4310 F       1  UNL1       -0.1644
@<TRIPOS>BOND
     1    16    17    1
     2    17    18    2
     3    17    19    2
     4    17    10    1
     5    10    11   ar
     6    11    12   ar
     7    12    13   ar
     8    13     1    1
     9     1     2   ar
    10     2     3   ar
    11     3     4   ar
    12     4     5    1
    13     4     6   ar
    14     6    20    1
    15    20    21   ar
    16    21    22   ar
    17    22    23   ar
    18    23    26    1
    19    26    27    1
    20    26    28    1
    21    26    29    1
    22    23    24   ar
    23    24    25   ar
    24     6     7   ar
    25    13    14   ar
    26    14    15   ar
    27    15    10   ar
    28     7     1   ar
    29    25    20   ar
    30     5     8    1
    31     5     9    1
@<TRIPOS>MOLECULE
*****
 29 31 0 0 0
SMALL
GASTEIGER

@<TRIPOS>ATOM
      1 C         139.3004  139.2578  165.1124 C.ar    1  UNL1        0.0193
      2 C         138.1473  138.5616  165.7724 C.ar    1  UNL1        0.1002
      3 N         137.9310  138.7046  167.2498 N.ar    1  UNL1       -0.2296
      4 C         138.8678  139.5437  168.0672 C.ar    1  UNL1        0.1254
      5 N         138.6516  139.6867  169.5446 N.pl3   1  UNL1       -0.3426
      6 C         140.0209  140.2399  167.4072 C.ar    1  UNL1        0.0327
      7 C         140.2372  140.0970  165.9298 C.ar    1  UNL1        0.0044
      8 H         137.8947  139.2298  169.9778 H       1  UNL1        0.1437
      9 H         139.2664  140.2375  170.0811 H       1  UNL1        0.1437
     10 C         139.9492  138.8289  160.6801 C.ar    1  UNL1        0.1057
     11 C         141.0861  139.2398  161.5682 C.ar    1  UNL1        0.0183
     12 C         140.8698  139.3827  163.0456 C.ar    1  UNL1        0.0014
     13 C         139.5167  139.1149  163.6349 C.ar    1  UNL1        0.0016
     14 C         138.3799  138.7040  162.7468 C.ar    1  UNL1        0.0014
     15 C         138.5961  138.5611  161.2694 C.ar    1  UNL1        0.0183
     16 C         140.3818  138.5430  157.7252 C.3     1  UNL1        0.1816
     17 S         140.1655  138.6860  159.2027 S.O2    1  UNL1        0.0104
     18 O         141.5764  138.2418  159.4522 O.2     1  UNL1       -0.1686
     19 O         138.7547  139.1301  158.9531 O.2     1  UNL1       -0.1686
     20 C         140.9578  141.0791  168.2246 C.ar    1  UNL1        0.0218
     21 C         142.3581  140.6065  168.4811 C.ar    1  UNL1        0.0031
     22 C         143.2950  141.4457  169.2984 C.ar    1  UNL1        0.0231
     23 C         142.8315  142.7574  169.8593 C.ar    1  UNL1        0.1526
     24 N         141.4312  143.2300  169.6029 N.ar    1  UNL1       -0.2399
     25 C         140.4943  142.3908  168.7854 C.ar    1  UNL1        0.0988
     26 C         143.7684  143.5966  170.6767 C.3     1  UNL1        0.4348
     27 F         144.7053  144.4357  171.4941 F       1  UNL1       -0.1644
     28 F         144.8934  142.6604  170.3483 F       1  UNL1       -0.1644
     29 F         142.6434  144.5328  171.0051 F       1  UNL1       -0.1644
@<TRIPOS>BOND
     1    16    17    1
     2    17    18    2
     3    17    19    2
     4    17    10    1
     5    10    11   ar
     6    11    12   ar
     7    12    13   ar
     8    13     1    1
     9     1     2   ar
    10     2     3   ar
    11     3     4   ar
    12     4     5    1
    13     4     6   ar
    14     6    20    1
    15    20    21   ar
    16    21    22   ar
    17    22    23   ar
    18    23    26    1
    19    26    27    1
    20    26    28    1
    21    26    29    1
    22    23    24   ar
    23    24    25   ar
    24     6     7   ar
    25    13    14   ar
    26    14    15   ar
    27    15    10   ar
    28     7     1   ar
    29    25    20   ar
    30     5     8    1
    31     5     9    1
@<TRIPOS>MOLECULE
*****
 29 31 0 0 0
SMALL
GASTEIGER

@<TRIPOS>ATOM
      1 C         142.3834  142.9832  163.8876 C.ar    1  UNL1        0.0193
      2 C         142.6959  144.3615  163.3852 C.ar    1  UNL1        0.1002
      3 N         142.9392  144.5895  161.9228 N.ar    1  UNL1       -0.2296
      4 C         142.8699  143.4392  160.9627 C.ar    1  UNL1        0.1254
      5 N         143.1131  143.6671  159.5002 N.pl3   1  UNL1       -0.3426
      6 C         142.5573  142.0608  161.4651 C.ar    1  UNL1        0.0327
      7 C         142.3141  141.8328  162.9276 C.ar    1  UNL1        0.0044
      8 H         143.3183  144.5718  159.1705 H       1  UNL1        0.1437
      9 H         143.0676  142.9121  158.8700 H       1  UNL1        0.1437
     10 C         141.6537  142.2993  168.2751 C.ar    1  UNL1        0.1057
     11 C         143.0414  142.1814  167.7183 C.ar    1  UNL1        0.0183
     12 C         143.2847  142.4093  166.2558 C.ar    1  UNL1        0.0014
     13 C         142.1401  142.7552  165.3501 C.ar    1  UNL1        0.0016
     14 C         140.7523  142.8732  165.9069 C.ar    1  UNL1        0.0014
     15 C         140.5091  142.6452  167.3694 C.ar    1  UNL1        0.0183
     16 C         141.1672  141.8433  171.2001 C.3     1  UNL1        0.1816
     17 S         141.4104  142.0713  169.7376 S.O2    1  UNL1        0.0104
     18 O         140.4503  140.9677  169.4058 O.2     1  UNL1       -0.1686
     19 O         142.3705  143.1750  170.0693 O.2     1  UNL1       -0.1686
     20 C         142.4880  140.9104  160.5050 C.ar    1  UNL1        0.0218
     21 C         141.1831  140.5505  159.8587 C.ar    1  UNL1        0.0031
     22 C         141.1137  139.4001  158.8986 C.ar    1  UNL1        0.0231
     23 C         142.3493  138.6095  158.5848 C.ar    1  UNL1        0.1526
     24 N         143.6542  138.9694  159.2311 N.ar    1  UNL1       -0.2399
     25 C         143.7235  140.1199  160.1912 C.ar    1  UNL1        0.0988
     26 C         142.2799  137.4591  157.6248 C.3     1  UNL1        0.4348
     27 F         142.2105  136.3088  156.6647 F       1  UNL1       -0.1644
     28 F         143.0258  136.5991  158.6014 F       1  UNL1       -0.1644
     29 F         141.5340  138.3192  156.6481 F       1  UNL1       -0.1644
@<TRIPOS>BOND
     1    16    17    1
     2    17    18    2
     3    17    19    2
     4    17    10    1
     5    10    11   ar
     6    11    12   ar
     7    12    13   ar
     8    13     1    1
     9     1     2   ar
    10     2     3   ar
    11     3     4   ar
    12     4     5    1
    13     4     6   ar
    14     6    20    1
    15    20    21   ar
    16    21    22   ar
    17    22    23   ar
    18    23    26    1
    19    26    27    1
    20    26    28    1
    21    26    29    1
    22    23    24   ar
    23    24    25   ar
    24     6     7   ar
    25    13    14   ar
    26    14    15   ar
    27    15    10   ar
    28     7     1   ar
    29    25    20   ar
    30     5     8    1
    31     5     9    1
@<TRIPOS>MOLECULE
*****
 29 31 0 0 0
SMALL
GASTEIGER

@<TRIPOS>ATOM
      1 C         139.2509  142.0981  163.8935 C.ar    1  UNL1        0.0193
      2 C         138.4730  143.3228  163.5130 C.ar    1  UNL1        0.1002
      3 N         138.1596  143.5945  162.0714 N.ar    1  UNL1       -0.2296
      4 C         138.6242  142.6414  161.0104 C.ar    1  UNL1        0.1254
      5 N         138.3109  142.9131  159.5689 N.pl3   1  UNL1       -0.3426
      6 C         139.4022  141.4167  161.3909 C.ar    1  UNL1        0.0327
      7 C         139.7155  141.1450  162.8325 C.ar    1  UNL1        0.0044
      8 H         137.8003  143.7169  159.3191 H       1  UNL1        0.1437
      9 H         138.6158  142.2875  158.8725 H       1  UNL1        0.1437
     10 C         140.1909  141.2831  168.2181 C.ar    1  UNL1        0.1057
     11 C         140.4819  142.6313  167.6285 C.ar    1  UNL1        0.0183
     12 C         140.1685  142.9030  166.1870 C.ar    1  UNL1        0.0014
     13 C         139.5643  141.8264  165.3350 C.ar    1  UNL1        0.0016
     14 C         139.2733  140.4782  165.9246 C.ar    1  UNL1        0.0014
     15 C         139.5867  140.2066  167.3661 C.ar    1  UNL1        0.0183
     16 C         140.8176  140.7398  171.1011 C.3     1  UNL1        0.1816
     17 S         140.5043  141.0115  169.6596 S.O2    1  UNL1        0.0104
     18 O         139.5573  139.8483  169.6463 O.2     1  UNL1       -0.1686
     19 O         141.4513  142.1747  169.6730 O.2     1  UNL1       -0.1686
     20 C         139.8668  140.4636  160.3299 C.ar    1  UNL1        0.0218
     21 C         141.2813  140.5243  159.8345 C.ar    1  UNL1        0.0031
     22 C         141.7460  139.5712  158.7735 C.ar    1  UNL1        0.0231
     23 C         140.7961  138.5574  158.2079 C.ar    1  UNL1        0.1526
     24 N         139.3816  138.4966  158.7033 N.ar    1  UNL1       -0.2399
     25 C         138.9169  139.4498  159.7643 C.ar    1  UNL1        0.0988
     26 C         141.2607  137.6043  157.1469 C.3     1  UNL1        0.4348
     27 F         141.7254  136.6512  156.0859 F       1  UNL1       -0.1644
     28 F         139.8346  137.2830  156.8109 F       1  UNL1       -0.1644
     29 F         142.6869  137.9255  157.4829 F       1  UNL1       -0.1644
@<TRIPOS>BOND
     1    16    17    1
     2    17    18    2
     3    17    19    2
     4    17    10    1
     5    10    11   ar
     6    11    12   ar
     7    12    13   ar
     8    13     1    1
     9     1     2   ar
    10     2     3   ar
    11     3     4   ar
    12     4     5    1
    13     4     6   ar
    14     6    20    1
    15    20    21   ar
    16    21    22   ar
    17    22    23   ar
    18    23    26    1
    19    26    27    1
    20    26    28    1
    21    26    29    1
    22    23    24   ar
    23    24    25   ar
    24     6     7   ar
    25    13    14   ar
    26    14    15   ar
    27    15    10   ar
    28     7     1   ar
    29    25    20   ar
    30     5     8    1
    31     5     9    1
@<TRIPOS>MOLECULE
*****
 29 31 0 0 0
SMALL
GASTEIGER

@<TRIPOS>ATOM
      1 C         142.4244  143.2151  161.3101 C.ar    1  UNL1        0.0193
      2 C         143.8325  143.3782  161.8006 C.ar    1  UNL1        0.1002
      3 N         144.2881  142.6479  163.0291 N.ar    1  UNL1       -0.2296
      4 C         143.3356  141.7546  163.7671 C.ar    1  UNL1        0.1254
      5 N         143.7911  141.0244  164.9956 N.pl3   1  UNL1       -0.3426
      6 C         141.9275  141.5916  163.2766 C.ar    1  UNL1        0.0327
      7 C         141.4719  142.3218  162.0481 C.ar    1  UNL1        0.0044
      8 H         144.7153  141.1314  165.3175 H       1  UNL1        0.1437
      9 H         143.1659  140.4381  165.4800 H       1  UNL1        0.1437
     10 C         141.0577  145.4059  157.6247 C.ar    1  UNL1        0.1057
     11 C         140.3499  145.6193  158.9298 C.ar    1  UNL1        0.0183
     12 C         140.8054  144.8890  160.1583 C.ar    1  UNL1        0.0014
     13 C         141.9688  143.9454  160.0817 C.ar    1  UNL1        0.0016
     14 C         142.6767  143.7320  158.7765 C.ar    1  UNL1        0.0014
     15 C         142.2211  144.4622  157.5480 C.ar    1  UNL1        0.0183
     16 C         140.1466  146.8664  155.1677 C.3     1  UNL1        0.1816
     17 S         140.6021  146.1361  156.3962 S.O2    1  UNL1        0.0104
     18 O         141.6045  145.3803  155.5752 O.2     1  UNL1       -0.1686
     19 O         139.5998  146.8920  157.2172 O.2     1  UNL1       -0.1686
     20 C         140.9748  140.6983  164.0146 C.ar    1  UNL1        0.0218
     21 C         140.1594  141.2453  165.1486 C.ar    1  UNL1        0.0031
     22 C         139.2068  140.3521  165.8866 C.ar    1  UNL1        0.0231
     23 C         139.0696  138.9117  165.4906 C.ar    1  UNL1        0.1526
     24 N         139.8851  138.3647  164.3567 N.ar    1  UNL1       -0.2399
     25 C         140.8377  139.2580  163.6187 C.ar    1  UNL1        0.0988
     26 C         138.1171  138.0185  166.2286 C.3     1  UNL1        0.4348
     27 F         137.1645  137.1253  166.9666 F       1  UNL1       -0.1644
     28 F         137.7583  139.1543  167.1403 F       1  UNL1       -0.1644
     29 F         138.4759  136.8827  165.3170 F       1  UNL1       -0.1644
@<TRIPOS>BOND
     1    16    17    1
     2    17    18    2
     3    17    19    2
     4    17    10    1
     5    10    11   ar
     6    11    12   ar
     7    12    13   ar
     8    13     1    1
     9     1     2   ar
    10     2     3   ar
    11     3     4   ar
    12     4     5    1
    13     4     6   ar
    14     6    20    1
    15    20    21   ar
    16    21    22   ar
    17    22    23   ar
    18    23    26    1
    19    26    27    1
    20    26    28    1
    21    26    29    1
    22    23    24   ar
    23    24    25   ar
    24     6     7   ar
    25    13    14   ar
    26    14    15   ar
    27    15    10   ar
    28     7     1   ar
    29    25    20   ar
    30     5     8    1
    31     5     9    1
@<TRIPOS>MOLECULE
*****
 29 31 0 0 0
SMALL
GASTEIGER

@<TRIPOS>ATOM
      1 C         140.6243  142.7787  161.5460 C.ar    1  UNL1        0.0193
      2 C         139.5718  143.7986  161.2265 C.ar    1  UNL1        0.1002
      3 N         138.5947  144.2239  162.2822 N.ar    1  UNL1       -0.2296
      4 C         138.6701  143.6294  163.6572 C.ar    1  UNL1        0.1254
      5 N         137.6930  144.0547  164.7128 N.pl3   1  UNL1       -0.3426
      6 C         139.7226  142.6095  163.9766 C.ar    1  UNL1        0.0327
      7 C         140.6997  142.1842  162.9210 C.ar    1  UNL1        0.0044
      8 H         137.0022  144.7241  164.5032 H       1  UNL1        0.1437
      9 H         137.7425  143.6645  165.6153 H       1  UNL1        0.1437
     10 C         143.5556  141.5027  158.3791 C.ar    1  UNL1        0.1057
     11 C         142.4069  140.6088  158.7417 C.ar    1  UNL1        0.0183
     12 C         141.4298  141.0342  159.7973 C.ar    1  UNL1        0.0014
     13 C         141.6014  142.3533  160.4903 C.ar    1  UNL1        0.0016
     14 C         142.7501  143.2472  160.1277 C.ar    1  UNL1        0.0014
     15 C         143.7272  142.8218  159.0720 C.ar    1  UNL1        0.0183
     16 C         145.5098  140.6520  156.2678 C.3     1  UNL1        0.1816
     17 S         144.5327  141.0773  157.3234 S.O2    1  UNL1        0.0104
     18 O         144.8722  142.5142  157.0587 O.2     1  UNL1       -0.1686
     19 O         144.1932  139.6404  157.5882 O.2     1  UNL1       -0.1686
     20 C         139.7980  142.0149  165.3517 C.ar    1  UNL1        0.0218
     21 C         140.4906  142.7600  166.4541 C.ar    1  UNL1        0.0031
     22 C         140.5660  142.1655  167.8291 C.ar    1  UNL1        0.0231
     23 C         139.9488  140.8258  168.1019 C.ar    1  UNL1        0.1526
     24 N         139.2562  140.0807  166.9996 N.ar    1  UNL1       -0.2399
     25 C         139.1808  140.6753  165.6245 C.ar    1  UNL1        0.0988
     26 C         140.0243  140.2313  169.4769 C.3     1  UNL1        0.4348
     27 F         140.0997  139.6367  170.8520 F       1  UNL1       -0.1644
     28 F         141.3150  139.5582  169.1151 F       1  UNL1       -0.1644
     29 F         138.7335  140.9043  169.8388 F       1  UNL1       -0.1644
@<TRIPOS>BOND
     1    16    17    1
     2    17    18    2
     3    17    19    2
     4    17    10    1
     5    10    11   ar
     6    11    12   ar
     7    12    13   ar
     8    13     1    1
     9     1     2   ar
    10     2     3   ar
    11     3     4   ar
    12     4     5    1
    13     4     6   ar
    14     6    20    1
    15    20    21   ar
    16    21    22   ar
    17    22    23   ar
    18    23    26    1
    19    26    27    1
    20    26    28    1
    21    26    29    1
    22    23    24   ar
    23    24    25   ar
    24     6     7   ar
    25    13    14   ar
    26    14    15   ar
    27    15    10   ar
    28     7     1   ar
    29    25    20   ar
    30     5     8    1
    31     5     9    1
