@<TRIPOS>MOLECULE
*****
 21 22 0 0 0
SMALL
GASTEIGER

@<TRIPOS>ATOM
      1 C         138.7880  143.0827  164.0436 C.ar    1  UNL1        0.0305
      2 C         138.7780  144.3601  163.2574 C.ar    1  UNL1        0.0306
      3 C         140.0550  145.1161  163.0385 C.ar    1  UNL1        0.1505
      4 F         140.0450  146.3935  162.2522 F       1  UNL1       -0.2033
      5 C         141.3420  144.5946  163.6057 C.ar    1  UNL1        0.0881
      6 CL        142.6189  145.3506  163.3868 Cl      1  UNL1       -0.0798
      7 C         141.3519  143.3172  164.3919 C.ar    1  UNL1        0.0509
      8 C         140.0750  142.5613  164.6108 C.ar    1  UNL1        0.1435
      9 C         137.5111  142.3268  164.2625 C.3     1  UNL1        0.0988
     10 C         137.7623  140.5207  162.4119 C.3     1  UNL1        0.0861
     11 N         136.9174  141.5185  163.1472 N.3     1  UNL1       -0.2925
     12 H         136.1310  141.0035  163.5430 H       1  UNL1        0.1236
     13 O         140.0850  141.2838  165.3970 O.3     1  UNL1       -0.4537
     14 C         140.2678  141.3206  166.8854 C.ar    1  UNL1        0.1462
     15 C         140.4128  140.0413  167.6551 C.ar    1  UNL1        0.0384
     16 C         140.5955  140.0780  169.1434 C.ar    1  UNL1        0.0154
     17 C         140.6333  141.3941  169.8621 C.ar    1  UNL1        0.0684
     18 CL        140.8160  141.4308  171.3505 Cl      1  UNL1       -0.0814
     19 C         140.4883  142.6734  169.0925 C.ar    1  UNL1        0.0712
     20 CL        140.5261  143.9894  169.8112 Cl      1  UNL1       -0.0813
     21 C         140.3055  142.6366  167.6041 C.ar    1  UNL1        0.0497
@<TRIPOS>BOND
     1    10    11    1
     2    11     9    1
     3     9     1    1
     4     1     2   ar
     5     2     3   ar
     6     3     4    1
     7     3     5   ar
     8     5     6    1
     9     5     7   ar
    10     7     8   ar
    11     8    13    1
    12    13    14    1
    13    14    15   ar
    14    15    16   ar
    15    16    17   ar
    16    17    18    1
    17    17    19   ar
    18    19    20    1
    19    19    21   ar
    20     8     1   ar
    21    21    14   ar
    22    11    12    1
@<TRIPOS>MOLECULE
*****
 21 22 0 0 0
SMALL
GASTEIGER

@<TRIPOS>ATOM
      1 C         140.6271  140.4644  167.0294 C.ar    1  UNL1        0.0305
      2 C         139.7578  139.8905  168.1087 C.ar    1  UNL1        0.0306
      3 C         139.4558  140.6971  169.3368 C.ar    1  UNL1        0.1505
      4 F         138.5864  140.1230  170.4160 F       1  UNL1       -0.2033
      5 C         140.0231  142.0776  169.4856 C.ar    1  UNL1        0.0881
      6 CL        139.7211  142.8842  170.7137 Cl      1  UNL1       -0.0798
      7 C         140.8924  142.6515  168.4064 C.ar    1  UNL1        0.0509
      8 C         141.1944  141.8450  167.1783 C.ar    1  UNL1        0.1435
      9 C         140.9291  139.6578  165.8014 C.3     1  UNL1        0.0988
     10 C         143.2798  138.6112  166.1601 C.3     1  UNL1        0.0861
     11 N         142.3496  139.4714  165.3571 N.3     1  UNL1       -0.2925
     12 H         142.3147  139.0717  164.4193 H       1  UNL1        0.1236
     13 O         142.0638  142.4190  166.0990 O.3     1  UNL1       -0.4537
     14 C         141.4741  143.3371  165.0699 C.ar    1  UNL1        0.1462
     15 C         142.3705  144.2050  164.2373 C.ar    1  UNL1        0.0384
     16 C         141.7808  145.1231  163.2081 C.ar    1  UNL1        0.0154
     17 C         140.2946  145.1735  163.0116 C.ar    1  UNL1        0.0684
     18 CL        139.7048  146.0916  161.9824 Cl      1  UNL1       -0.0814
     19 C         139.3981  144.3056  163.8441 C.ar    1  UNL1        0.0712
     20 CL        137.9119  144.3559  163.6475 Cl      1  UNL1       -0.0813
     21 C         139.9879  143.3874  164.8733 C.ar    1  UNL1        0.0497
@<TRIPOS>BOND
     1    10    11    1
     2    11     9    1
     3     9     1    1
     4     1     2   ar
     5     2     3   ar
     6     3     4    1
     7     3     5   ar
     8     5     6    1
     9     5     7   ar
    10     7     8   ar
    11     8    13    1
    12    13    14    1
    13    14    15   ar
    14    15    16   ar
    15    16    17   ar
    16    17    18    1
    17    17    19   ar
    18    19    20    1
    19    19    21   ar
    20     8     1   ar
    21    21    14   ar
    22    11    12    1
@<TRIPOS>MOLECULE
*****
 21 22 0 0 0
SMALL
GASTEIGER

@<TRIPOS>ATOM
      1 C         141.3926  140.4257  166.8907 C.ar    1  UNL1        0.0305
      2 C         142.4972  140.2516  167.8903 C.ar    1  UNL1        0.0306
      3 C         142.6790  141.2557  168.9897 C.ar    1  UNL1        0.1505
      4 F         143.7837  141.0816  169.9894 F       1  UNL1       -0.2033
      5 C         141.7561  142.4340  169.0895 C.ar    1  UNL1        0.0881
      6 CL        141.9378  143.4381  170.1889 Cl      1  UNL1       -0.0798
      7 C         140.6514  142.6080  168.0898 C.ar    1  UNL1        0.0509
      8 C         140.4696  141.6039  166.9904 C.ar    1  UNL1        0.1435
      9 C         141.2108  139.4216  165.7913 C.3     1  UNL1        0.0988
     10 C         139.6523  137.6276  164.7413 C.3     1  UNL1        0.0861
     11 N         139.8346  138.9491  165.4270 N.3     1  UNL1       -0.2925
     12 H         139.2985  138.9075  166.2938 H       1  UNL1        0.1236
     13 O         139.3649  141.7780  165.9908 O.3     1  UNL1       -0.4537
     14 C         139.4300  142.8910  164.9872 C.ar    1  UNL1        0.1462
     15 C         138.1992  143.2892  164.2279 C.ar    1  UNL1        0.0384
     16 C         138.2643  144.4021  163.2244 C.ar    1  UNL1        0.0154
     17 C         139.5603  145.1169  162.9801 C.ar    1  UNL1        0.0684
     18 CL        139.6254  146.2298  161.9766 Cl      1  UNL1       -0.0814
     19 C         140.7911  144.7187  163.7393 C.ar    1  UNL1        0.0712
     20 CL        142.0870  145.4334  163.4951 Cl      1  UNL1       -0.0813
     21 C         140.7260  143.6057  164.7429 C.ar    1  UNL1        0.0497
@<TRIPOS>BOND
     1    10    11    1
     2    11     9    1
     3     9     1    1
     4     1     2   ar
     5     2     3   ar
     6     3     4    1
     7     3     5   ar
     8     5     6    1
     9     5     7   ar
    10     7     8   ar
    11     8    13    1
    12    13    14    1
    13    14    15   ar
    14    15    16   ar
    15    16    17   ar
    16    17    18    1
    17    17    19   ar
    18    19    20    1
    19    19    21   ar
    20     8     1   ar
    21    21    14   ar
    22    11    12    1
@<TRIPOS>MOLECULE
*****
 21 22 0 0 0
SMALL
GASTEIGER

@<TRIPOS>ATOM
      1 C         140.6981  140.3373  168.0905 C.ar    1  UNL1        0.0305
      2 C         139.2667  139.9013  168.1950 C.ar    1  UNL1        0.0306
      3 C         138.6259  139.1535  167.0635 C.ar    1  UNL1        0.1505
      4 F         137.1945  138.7175  167.1681 F       1  UNL1       -0.2033
      5 C         139.4165  138.8418  165.8275 C.ar    1  UNL1        0.0881
      6 CL        138.7757  138.0941  164.6960 Cl      1  UNL1       -0.0798
      7 C         140.8479  139.2779  165.7230 C.ar    1  UNL1        0.0509
      8 C         141.4887  140.0256  166.8545 C.ar    1  UNL1        0.1435
      9 C         141.3389  141.0850  169.2220 C.3     1  UNL1        0.0988
     10 C         143.5898  142.3313  169.5830 C.3     1  UNL1        0.0861
     11 N         142.2387  142.2507  168.9364 N.3     1  UNL1       -0.2925
     12 H         142.3935  142.2630  167.9283 H       1  UNL1        0.1236
     13 O         142.9202  140.4616  166.7500 O.3     1  UNL1       -0.4537
     14 C         143.3868  141.2203  165.5431 C.ar    1  UNL1        0.1462
     15 C         144.1476  140.5134  164.4607 C.ar    1  UNL1        0.0384
     16 C         144.6143  141.2720  163.2538 C.ar    1  UNL1        0.0154
     17 C         144.3202  142.7377  163.1293 C.ar    1  UNL1        0.0684
     18 CL        144.7869  143.4963  161.9224 Cl      1  UNL1       -0.0814
     19 C         143.5595  143.4446  164.2116 C.ar    1  UNL1        0.0712
     20 CL        143.2655  144.9102  164.0871 Cl      1  UNL1       -0.0813
     21 C         143.0928  142.6859  165.4186 C.ar    1  UNL1        0.0497
@<TRIPOS>BOND
     1    10    11    1
     2    11     9    1
     3     9     1    1
     4     1     2   ar
     5     2     3   ar
     6     3     4    1
     7     3     5   ar
     8     5     6    1
     9     5     7   ar
    10     7     8   ar
    11     8    13    1
    12    13    14    1
    13    14    15   ar
    14    15    16   ar
    15    16    17   ar
    16    17    18    1
    17    17    19   ar
    18    19    20    1
    19    19    21   ar
    20     8     1   ar
    21    21    14   ar
    22    11    12    1
@<TRIPOS>MOLECULE
*****
 21 22 0 0 0
SMALL
GASTEIGER

@<TRIPOS>ATOM
      1 C         142.5729  144.2582  163.3647 C.ar    1  UNL1        0.0305
      2 C         141.4936  145.1297  162.7944 C.ar    1  UNL1        0.0306
      3 C         140.0616  144.8963  163.1751 C.ar    1  UNL1        0.1505
      4 F         138.9822  145.7679  162.6048 F       1  UNL1       -0.2033
      5 C         139.7090  143.7913  164.1262 C.ar    1  UNL1        0.0881
      6 CL        138.2771  143.5578  164.5070 Cl      1  UNL1       -0.0798
      7 C         140.7884  142.9198  164.6965 C.ar    1  UNL1        0.0509
      8 C         142.2204  143.1532  164.3158 C.ar    1  UNL1        0.1435
      9 C         144.0049  144.4917  162.9839 C.3     1  UNL1        0.0988
     10 C         144.4125  142.7494  161.1002 C.3     1  UNL1        0.0861
     11 N         144.8182  143.3735  162.4024 N.3     1  UNL1       -0.2925
     12 H         145.7641  143.7330  162.2746 H       1  UNL1        0.1236
     13 O         143.2998  142.2816  164.8861 O.3     1  UNL1       -0.4537
     14 C         143.1121  141.6358  166.2269 C.ar    1  UNL1        0.1462
     15 C         142.8315  140.1651  166.3183 C.ar    1  UNL1        0.0384
     16 C         142.6438  139.5193  167.6591 C.ar    1  UNL1        0.0154
     17 C         142.7367  140.3442  168.9085 C.ar    1  UNL1        0.0684
     18 CL        142.5490  139.6984  170.2492 Cl      1  UNL1       -0.0814
     19 C         143.0173  141.8148  168.8171 C.ar    1  UNL1        0.0712
     20 CL        143.1102  142.6397  170.0665 Cl      1  UNL1       -0.0813
     21 C         143.2050  142.4607  167.4763 C.ar    1  UNL1        0.0497
@<TRIPOS>BOND
     1    10    11    1
     2    11     9    1
     3     9     1    1
     4     1     2   ar
     5     2     3   ar
     6     3     4    1
     7     3     5   ar
     8     5     6    1
     9     5     7   ar
    10     7     8   ar
    11     8    13    1
    12    13    14    1
    13    14    15   ar
    14    15    16   ar
    15    16    17   ar
    16    17    18    1
    17    17    19   ar
    18    19    20    1
    19    19    21   ar
    20     8     1   ar
    21    21    14   ar
    22    11    12    1
@<TRIPOS>MOLECULE
*****
 21 22 0 0 0
SMALL
GASTEIGER

@<TRIPOS>ATOM
      1 C         140.0493  140.0516  167.2902 C.ar    1  UNL1        0.0305
      2 C         139.5582  140.0072  168.7068 C.ar    1  UNL1        0.0306
      3 C         140.5397  139.9416  169.8392 C.ar    1  UNL1        0.1505
      4 F         140.0486  139.8972  171.2559 F       1  UNL1       -0.2033
      5 C         142.0124  139.9204  169.5550 C.ar    1  UNL1        0.0881
      6 CL        142.9939  139.8549  170.6873 Cl      1  UNL1       -0.0798
      7 C         142.5035  139.9648  168.1384 C.ar    1  UNL1        0.0509
      8 C         141.5219  140.0304  167.0060 C.ar    1  UNL1        0.1435
      9 C         139.0677  140.1171  166.1579 C.3     1  UNL1        0.0988
     10 C         138.8350  138.2417  164.3750 C.3     1  UNL1        0.0861
     11 N         138.4021  138.8650  165.6689 N.3     1  UNL1       -0.2925
     12 H         138.5330  138.1596  166.3938 H       1  UNL1        0.1236
     13 O         142.0131  140.0747  165.5893 O.3     1  UNL1       -0.4537
     14 C         142.5090  141.3653  165.0076 C.ar    1  UNL1        0.1462
     15 C         143.9529  141.5111  164.6282 C.ar    1  UNL1        0.0384
     16 C         144.4489  142.8017  164.0464 C.ar    1  UNL1        0.0154
     17 C         143.5009  143.9464  163.8440 C.ar    1  UNL1        0.0684
     18 CL        143.9969  145.2370  163.2622 Cl      1  UNL1       -0.0814
     19 C         142.0571  143.8006  164.2233 C.ar    1  UNL1        0.0712
     20 CL        141.1091  144.9454  164.0208 Cl      1  UNL1       -0.0813
     21 C         141.5611  142.5100  164.8051 C.ar    1  UNL1        0.0497
@<TRIPOS>BOND
     1    10    11    1
     2    11     9    1
     3     9     1    1
     4     1     2   ar
     5     2     3   ar
     6     3     4    1
     7     3     5   ar
     8     5     6    1
     9     5     7   ar
    10     7     8   ar
    11     8    13    1
    12    13    14    1
    13    14    15   ar
    14    15    16   ar
    15    16    17   ar
    16    17    18    1
    17    17    19   ar
    18    19    20    1
    19    19    21   ar
    20     8     1   ar
    21    21    14   ar
    22    11    12    1
@<TRIPOS>MOLECULE
*****
 21 22 0 0 0
SMALL
GASTEIGER

@<TRIPOS>ATOM
      1 C         142.1467  139.3710  166.8366 C.ar    1  UNL1        0.0305
      2 C         142.8365  139.4393  168.1668 C.ar    1  UNL1        0.0306
      3 C         142.0515  139.7639  169.4030 C.ar    1  UNL1        0.1505
      4 F         142.7415  139.8322  170.7332 F       1  UNL1       -0.2033
      5 C         140.5766  140.0201  169.3092 C.ar    1  UNL1        0.0881
      6 CL        139.7915  140.3447  170.5454 Cl      1  UNL1       -0.0798
      7 C         139.8867  139.9517  167.9790 C.ar    1  UNL1        0.0509
      8 C         140.6717  139.6272  166.7427 C.ar    1  UNL1        0.1435
      9 C         142.9317  139.0464  165.6004 C.3     1  UNL1        0.0988
     10 C         142.5378  138.3271  163.1352 C.3     1  UNL1        0.0861
     11 N         142.3904  138.0640  164.6045 N.3     1  UNL1       -0.2925
     12 H         142.8490  137.1723  164.7915 H       1  UNL1        0.1236
     13 O         139.9818  139.5589  165.4125 O.3     1  UNL1       -0.4537
     14 C         139.3922  140.7990  164.8088 C.ar    1  UNL1        0.1462
     15 C         138.0718  140.7335  164.1001 C.ar    1  UNL1        0.0384
     16 C         137.4823  141.9736  163.4964 C.ar    1  UNL1        0.0154
     17 C         138.2131  143.2793  163.6014 C.ar    1  UNL1        0.0684
     18 CL        137.6236  144.5194  162.9977 Cl      1  UNL1       -0.0814
     19 C         139.5335  143.3448  164.3101 C.ar    1  UNL1        0.0712
     20 CL        140.2644  144.6505  164.4151 Cl      1  UNL1       -0.0813
     21 C         140.1231  142.1047  164.9138 C.ar    1  UNL1        0.0497
@<TRIPOS>BOND
     1    10    11    1
     2    11     9    1
     3     9     1    1
     4     1     2   ar
     5     2     3   ar
     6     3     4    1
     7     3     5   ar
     8     5     6    1
     9     5     7   ar
    10     7     8   ar
    11     8    13    1
    12    13    14    1
    13    14    15   ar
    14    15    16   ar
    15    16    17   ar
    16    17    18    1
    17    17    19   ar
    18    19    20    1
    19    19    21   ar
    20     8     1   ar
    21    21    14   ar
    22    11    12    1
@<TRIPOS>MOLECULE
*****
 21 22 0 0 0
SMALL
GASTEIGER

@<TRIPOS>ATOM
      1 C         139.0137  140.9482  164.3129 C.ar    1  UNL1        0.0305
      2 C         138.2901  139.8209  163.6381 C.ar    1  UNL1        0.0306
      3 C         138.9857  138.5111  163.4132 C.ar    1  UNL1        0.1505
      4 F         138.2621  137.3837  162.7383 F       1  UNL1       -0.2033
      5 C         140.4049  138.3286  163.8633 C.ar    1  UNL1        0.0881
      6 CL        141.1005  137.0188  163.6384 Cl      1  UNL1       -0.0798
      7 C         141.1285  139.4560  164.5382 C.ar    1  UNL1        0.0509
      8 C         140.4328  140.7658  164.7630 C.ar    1  UNL1        0.1435
      9 C         138.3180  142.2580  164.5378 C.3     1  UNL1        0.0988
     10 C         138.9414  144.6978  165.1772 C.3     1  UNL1        0.0861
     11 N         139.0211  143.5446  164.2212 N.3     1  UNL1       -0.2925
     12 H         140.0102  143.3206  164.1119 H       1  UNL1        0.1236
     13 O         141.1565  141.8931  165.4379 O.3     1  UNL1       -0.4537
     14 C         141.3039  141.9028  166.9306 C.ar    1  UNL1        0.1462
     15 C         140.1130  141.6389  167.8036 C.ar    1  UNL1        0.0384
     16 C         140.2604  141.6486  169.2963 C.ar    1  UNL1        0.0154
     17 C         141.5987  141.9222  169.9160 C.ar    1  UNL1        0.0684
     18 CL        141.7461  141.9318  171.4087 Cl      1  UNL1       -0.0814
     19 C         142.7896  142.1861  169.0431 C.ar    1  UNL1        0.0712
     20 CL        144.1279  142.4597  169.6628 Cl      1  UNL1       -0.0813
     21 C         142.6422  142.1764  167.5503 C.ar    1  UNL1        0.0497
@<TRIPOS>BOND
     1    10    11    1
     2    11     9    1
     3     9     1    1
     4     1     2   ar
     5     2     3   ar
     6     3     4    1
     7     3     5   ar
     8     5     6    1
     9     5     7   ar
    10     7     8   ar
    11     8    13    1
    12    13    14    1
    13    14    15   ar
    14    15    16   ar
    15    16    17   ar
    16    17    18    1
    17    17    19   ar
    18    19    20    1
    19    19    21   ar
    20     8     1   ar
    21    21    14   ar
    22    11    12    1
@<TRIPOS>MOLECULE
*****
 21 22 0 0 0
SMALL
GASTEIGER

@<TRIPOS>ATOM
      1 C         141.4191  140.8047  167.3023 C.ar    1  UNL1        0.0305
      2 C         142.5441  139.8165  167.3911 C.ar    1  UNL1        0.0306
      3 C         142.6849  138.7449  166.3510 C.ar    1  UNL1        0.1505
      4 F         143.8099  137.7567  166.4398 F       1  UNL1       -0.2033
      5 C         141.7008  138.6616  165.2220 C.ar    1  UNL1        0.0881
      6 CL        141.8417  137.5900  164.1819 Cl      1  UNL1       -0.0798
      7 C         140.5759  139.6498  165.1332 C.ar    1  UNL1        0.0509
      8 C         140.4350  140.7213  166.1734 C.ar    1  UNL1        0.1435
      9 C         141.2783  141.8762  168.3425 C.3     1  UNL1        0.0988
     10 C         140.4350  140.5912  170.4371 C.3     1  UNL1        0.0861
     11 N         141.4116  141.5323  169.7964 N.3     1  UNL1       -0.2925
     12 H         142.3381  141.1234  169.9185 H       1  UNL1        0.1236
     13 O         139.3100  141.7096  166.0845 O.3     1  UNL1       -0.4537
     14 C         139.3648  142.8198  165.0774 C.ar    1  UNL1        0.1462
     15 C         138.1476  143.1602  164.2694 C.ar    1  UNL1        0.0384
     16 C         138.2024  144.2704  163.2622 C.ar    1  UNL1        0.0154
     17 C         139.4742  145.0402  163.0630 C.ar    1  UNL1        0.0684
     18 CL        139.5290  146.1504  162.0559 Cl      1  UNL1       -0.0814
     19 C         140.6913  144.6999  163.8709 C.ar    1  UNL1        0.0712
     20 CL        141.9632  145.4698  163.6717 Cl      1  UNL1       -0.0813
     21 C         140.6366  143.5896  164.8781 C.ar    1  UNL1        0.0497
@<TRIPOS>BOND
     1    10    11    1
     2    11     9    1
     3     9     1    1
     4     1     2   ar
     5     2     3   ar
     6     3     4    1
     7     3     5   ar
     8     5     6    1
     9     5     7   ar
    10     7     8   ar
    11     8    13    1
    12    13    14    1
    13    14    15   ar
    14    15    16   ar
    15    16    17   ar
    16    17    18    1
    17    17    19   ar
    18    19    20    1
    19    19    21   ar
    20     8     1   ar
    21    21    14   ar
    22    11    12    1
