@<TRIPOS>MOLECULE
*****
 31 35 0 0 0
SMALL
GASTEIGER

@<TRIPOS>ATOM
      1 O         139.1341  143.7176  155.3901 O.2     1  UNL1       -0.2258
      2 C         139.5548  144.2643  156.7220 C.2     1  UNL1        0.4097
      3 O         139.7726  143.4667  157.9737 O.3     1  UNL1       -0.4398
      4 C         140.1840  144.4142  159.0614 C.3     1  UNL1        0.1561
      5 C         140.1037  142.9815  159.4983 C.3     1  UNL1        0.0425
      6 C         140.4226  142.6109  160.9164 C.3     1  UNL1        0.0160
      7 C         140.8218  143.6730  161.8975 C.3     1  UNL1        0.1122
      8 C         140.9021  145.1056  161.4606 C.3     1  UNL1        0.0160
      9 C         140.5832  145.4762  160.0426 C.3     1  UNL1        0.0425
     10 C         140.2205  145.7973  158.4820 C.3     1  UNL1        0.1429
     11 N         139.8317  145.7048  157.0363 N.am    1  UNL1       -0.2061
     12 C         141.1407  143.3023  163.3156 C.2     1  UNL1        0.3506
     13 N         140.1426  143.0431  164.4050 N.2     1  UNL1       -0.0350
     14 C         140.8987  142.7063  165.6559 C.2     1  UNL1        0.2348
     15 C         140.4422  142.3598  167.0421 C.2     1  UNL1        0.0869
     16 C         141.4511  142.0643  168.1121 C.2     1  UNL1        0.1468
     17 C         142.9165  142.1154  167.7959 C.2     1  UNL1        0.0200
     18 C         143.3730  142.4620  166.4097 C.3     1  UNL1        0.1068
     19 C         142.3642  142.7574  165.3397 C.2     1  UNL1        0.2176
     20 N         142.5137  143.1257  163.8934 N.2     1  UNL1       -0.0389
     21 O         140.9946  141.7178  169.4983 O.2     1  UNL1       -0.4047
     22 C         140.1168  142.6676  170.2582 C.3     1  UNL1        0.5753
     23 F         139.2390  143.6172  171.0181 F       1  UNL1       -0.1328
     24 F         139.0348  141.6298  170.3051 F       1  UNL1       -0.1328
     25 F         141.1988  143.7053  170.2112 F       1  UNL1       -0.1328
     26 C         139.7364  146.8512  156.0738 C.ar    1  UNL1        0.1400
     27 C         138.8831  148.0395  156.4049 C.ar    1  UNL1        0.0348
     28 C         138.7878  149.1860  155.4423 C.ar    1  UNL1        0.0045
     29 C         139.5459  149.1442  154.1486 C.ar    1  UNL1        0.0208
     30 C         140.3992  147.9557  153.8175 C.ar    1  UNL1        0.1003
     31 N         140.4944  146.8093  154.7801 N.ar    1  UNL1       -0.2287
@<TRIPOS>BOND
     1     1     2    2
     2     2     3    1
     3     3     4    1
     4     4     5    1
     5     5     6    1
     6     6     7    1
     7     7    12    1
     8    12    13    2
     9    13    14    1
    10    14    15    2
    11    15    16    1
    12    16    21    1
    13    21    22    1
    14    22    23    1
    15    22    24    1
    16    22    25    1
    17    16    17    2
    18    17    18    1
    19    18    19    1
    20    19    20    2
    21     7     8    1
    22     8     9    1
    23     4    10    1
    24    10    11    1
    25    11    26    1
    26    26    27   ar
    27    27    28   ar
    28    28    29   ar
    29    29    30   ar
    30    30    31   ar
    31    11     2   am
    32    31    26   ar
    33     9     4    1
    34    20    12    1
    35    19    14    1
@<TRIPOS>MOLECULE
*****
 31 35 0 0 0
SMALL
GASTEIGER

@<TRIPOS>ATOM
      1 O         143.7250  142.6293  167.5669 O.2     1  UNL1       -0.2258
      2 C         142.7385  142.8015  166.4502 C.2     1  UNL1        0.4097
      3 O         143.0354  143.3587  165.0894 O.3     1  UNL1       -0.4398
      4 C         141.7622  143.3483  164.2964 C.3     1  UNL1        0.1561
      5 C         142.9432  143.8908  163.5473 C.3     1  UNL1        0.0425
      6 C         142.7820  144.3613  162.1322 C.3     1  UNL1        0.0160
      7 C         141.4400  144.2895  161.4662 C.3     1  UNL1        0.1122
      8 C         140.2590  143.7470  162.2152 C.3     1  UNL1        0.0160
      9 C         140.4201  143.2765  163.6303 C.3     1  UNL1        0.0425
     10 C         140.6784  142.7848  165.1670 C.3     1  UNL1        0.1429
     11 N         141.2818  142.4468  166.4980 N.am    1  UNL1       -0.2061
     12 C         141.2789  144.7601  160.0510 C.2     1  UNL1        0.3506
     13 N         140.1399  145.5777  159.5179 N.2     1  UNL1       -0.0350
     14 C         140.3856  145.8186  158.0580 C.2     1  UNL1        0.2348
     15 C         139.6006  146.5605  157.0171 C.2     1  UNL1        0.0869
     16 C         140.1067  146.6336  155.6068 C.2     1  UNL1        0.1468
     17 C         141.3975  145.9649  155.2376 C.2     1  UNL1        0.0200
     18 C         142.1825  145.2230  156.2785 C.3     1  UNL1        0.1068
     19 C         141.6765  145.1498  157.6886 C.2     1  UNL1        0.2176
     20 N         142.2286  144.4956  158.9204 N.2     1  UNL1       -0.0389
     21 O         139.3217  147.3755  154.5659 O.2     1  UNL1       -0.4047
     22 C         139.6230  148.8181  154.2862 C.3     1  UNL1        0.5753
     23 F         139.9242  150.2607  154.0065 F       1  UNL1       -0.1328
     24 F         138.6638  149.2274  155.3643 F       1  UNL1       -0.1328
     25 F         140.5822  148.4088  153.2081 F       1  UNL1       -0.1328
     26 C         140.5559  141.8577  167.6710 C.ar    1  UNL1        0.1400
     27 C         139.9088  140.5097  167.5525 C.ar    1  UNL1        0.0348
     28 C         139.1829  139.9205  168.7256 C.ar    1  UNL1        0.0045
     29 C         139.1042  140.6793  170.0171 C.ar    1  UNL1        0.0208
     30 C         139.7513  142.0274  170.1356 C.ar    1  UNL1        0.1003
     31 N         140.4772  142.6165  168.9625 N.ar    1  UNL1       -0.2287
@<TRIPOS>BOND
     1     1     2    2
     2     2     3    1
     3     3     4    1
     4     4     5    1
     5     5     6    1
     6     6     7    1
     7     7    12    1
     8    12    13    2
     9    13    14    1
    10    14    15    2
    11    15    16    1
    12    16    21    1
    13    21    22    1
    14    22    23    1
    15    22    24    1
    16    22    25    1
    17    16    17    2
    18    17    18    1
    19    18    19    1
    20    19    20    2
    21     7     8    1
    22     8     9    1
    23     4    10    1
    24    10    11    1
    25    11    26    1
    26    26    27   ar
    27    27    28   ar
    28    28    29   ar
    29    29    30   ar
    30    30    31   ar
    31    11     2   am
    32    31    26   ar
    33     9     4    1
    34    20    12    1
    35    19    14    1
@<TRIPOS>MOLECULE
*****
 31 35 0 0 0
SMALL
GASTEIGER

@<TRIPOS>ATOM
      1 O         143.8826  139.1761  156.1194 O.2     1  UNL1       -0.2258
      2 C         143.4664  138.7048  157.4813 C.2     1  UNL1        0.4097
      3 O         143.5409  139.5007  158.7506 O.3     1  UNL1       -0.4398
      4 C         143.0232  138.6427  159.8668 C.3     1  UNL1        0.1561
      5 C         143.4590  140.0109  160.3007 C.3     1  UNL1        0.0425
      6 C         143.3541  140.4091  161.7430 C.3     1  UNL1        0.0160
      7 C         142.8134  139.4392  162.7515 C.3     1  UNL1        0.1122
      8 C         142.3776  138.0711  162.3176 C.3     1  UNL1        0.0160
      9 C         142.4825  137.6728  160.8753 C.3     1  UNL1        0.0425
     10 C         142.6287  137.3166  159.2873 C.3     1  UNL1        0.1429
     11 N         142.9026  137.3549  157.8130 N.am    1  UNL1       -0.2061
     12 C         142.7086  139.8374  164.1939 C.2     1  UNL1        0.3506
     13 N         142.3913  141.2101  164.7087 N.2     1  UNL1       -0.0350
     14 C         142.3892  141.1539  166.2077 C.2     1  UNL1        0.2348
     15 C         142.1404  142.2025  167.2510 C.2     1  UNL1        0.0869
     16 C         142.2076  141.8437  168.7060 C.2     1  UNL1        0.1468
     17 C         142.5237  140.4363  169.1175 C.2     1  UNL1        0.0200
     18 C         142.7725  139.3877  168.0741 C.3     1  UNL1        0.1068
     19 C         142.7053  139.7465  166.6193 C.2     1  UNL1        0.2176
     20 N         142.9026  138.9329  165.3747 N.2     1  UNL1       -0.0389
     21 O         141.9588  142.8922  169.7493 O.2     1  UNL1       -0.4047
     22 C         140.5906  143.0487  170.3441 C.3     1  UNL1        0.5753
     23 F         139.2225  143.2051  170.9388 F       1  UNL1       -0.1328
     24 F         140.2148  143.9841  169.2334 F       1  UNL1       -0.1328
     25 F         140.9665  142.1133  171.4548 F       1  UNL1       -0.1328
     26 C         142.6561  136.2394  156.8412 C.ar    1  UNL1        0.1400
     27 C         141.4789  136.2993  155.9135 C.ar    1  UNL1        0.0348
     28 C         141.2324  135.1836  154.9416 C.ar    1  UNL1        0.0045
     29 C         142.1630  134.0081  154.8973 C.ar    1  UNL1        0.0208
     30 C         143.3403  133.9482  155.8250 C.ar    1  UNL1        0.1003
     31 N         143.5868  135.0638  156.7969 N.ar    1  UNL1       -0.2287
@<TRIPOS>BOND
     1     1     2    2
     2     2     3    1
     3     3     4    1
     4     4     5    1
     5     5     6    1
     6     6     7    1
     7     7    12    1
     8    12    13    2
     9    13    14    1
    10    14    15    2
    11    15    16    1
    12    16    21    1
    13    21    22    1
    14    22    23    1
    15    22    24    1
    16    22    25    1
    17    16    17    2
    18    17    18    1
    19    18    19    1
    20    19    20    2
    21     7     8    1
    22     8     9    1
    23     4    10    1
    24    10    11    1
    25    11    26    1
    26    26    27   ar
    27    27    28   ar
    28    28    29   ar
    29    29    30   ar
    30    30    31   ar
    31    11     2   am
    32    31    26   ar
    33     9     4    1
    34    20    12    1
    35    19    14    1
@<TRIPOS>MOLECULE
*****
 31 35 0 0 0
SMALL
GASTEIGER

@<TRIPOS>ATOM
      1 O         137.5492  138.7569  168.4146 O.2     1  UNL1       -0.2258
      2 C         138.4687  139.1287  167.2894 C.2     1  UNL1        0.4097
      3 O         138.3709  138.6429  165.8735 O.3     1  UNL1       -0.4398
      4 C         139.4893  139.2655  165.0914 C.3     1  UNL1        0.1561
      5 C         138.6084  138.3608  164.2818 C.3     1  UNL1        0.0425
      6 C         138.8886  138.1498  162.8234 C.3     1  UNL1        0.0160
      7 C         140.0496  138.8436  162.1746 C.3     1  UNL1        0.1122
      8 C         140.9304  139.7483  162.9843 C.3     1  UNL1        0.0160
      9 C         140.6502  139.9593  164.4427 C.3     1  UNL1        0.0425
     10 C         140.2783  140.1362  166.0239 C.3     1  UNL1        0.1429
     11 N         139.6476  140.0516  167.3823 N.am    1  UNL1       -0.2061
     12 C         140.3297  138.6326  160.7162 C.2     1  UNL1        0.3506
     13 N         141.6060  138.1050  160.1308 N.2     1  UNL1       -0.0350
     14 C         141.4478  138.0585  158.6399 C.2     1  UNL1        0.2348
     15 C         142.3774  137.6264  157.5449 C.2     1  UNL1        0.0869
     16 C         141.9328  137.6931  156.1138 C.2     1  UNL1        0.1468
     17 C         140.5587  138.1920  155.7777 C.2     1  UNL1        0.0200
     18 C         139.6291  138.6241  156.8728 C.3     1  UNL1        0.1068
     19 C         140.0736  138.5574  158.3038 C.2     1  UNL1        0.2176
     20 N         139.3826  138.9122  159.5870 N.2     1  UNL1       -0.0389
     21 O         142.8625  137.2610  155.0188 O.2     1  UNL1       -0.4047
     22 C         143.4812  135.8950  155.0557 C.3     1  UNL1        0.5753
     23 F         144.0998  134.5290  155.0926 F       1  UNL1       -0.1328
     24 F         142.1428  135.2811  154.7695 F       1  UNL1       -0.1328
     25 F         144.8195  136.5088  155.3419 F       1  UNL1       -0.1328
     26 C         140.1139  140.7648  168.6167 C.ar    1  UNL1        0.1400
     27 C         140.3649  142.2431  168.5792 C.ar    1  UNL1        0.0348
     28 C         140.8311  142.9563  169.8137 C.ar    1  UNL1        0.0045
     29 C         141.0464  142.1910  171.0858 C.ar    1  UNL1        0.0208
     30 C         140.7954  140.7126  171.1233 C.ar    1  UNL1        0.1003
     31 N         140.3291  139.9995  169.8888 N.ar    1  UNL1       -0.2287
@<TRIPOS>BOND
     1     1     2    2
     2     2     3    1
     3     3     4    1
     4     4     5    1
     5     5     6    1
     6     6     7    1
     7     7    12    1
     8    12    13    2
     9    13    14    1
    10    14    15    2
    11    15    16    1
    12    16    21    1
    13    21    22    1
    14    22    23    1
    15    22    24    1
    16    22    25    1
    17    16    17    2
    18    17    18    1
    19    18    19    1
    20    19    20    2
    21     7     8    1
    22     8     9    1
    23     4    10    1
    24    10    11    1
    25    11    26    1
    26    26    27   ar
    27    27    28   ar
    28    28    29   ar
    29    29    30   ar
    30    30    31   ar
    31    11     2   am
    32    31    26   ar
    33     9     4    1
    34    20    12    1
    35    19    14    1
@<TRIPOS>MOLECULE
*****
 31 35 0 0 0
SMALL
GASTEIGER

@<TRIPOS>ATOM
      1 O         137.5484  143.4767  156.2448 O.2     1  UNL1       -0.2258
      2 C         137.7375  142.5092  157.3753 C.2     1  UNL1        0.4097
      3 O         138.1188  142.8614  158.7828 O.3     1  UNL1       -0.4398
      4 C         138.1955  141.5895  159.5743 C.3     1  UNL1        0.1561
      5 C         138.5078  142.8226  160.3692 C.3     1  UNL1        0.0425
      6 C         138.8570  142.7089  161.8235 C.3     1  UNL1        0.0160
      7 C         138.8940  141.3621  162.4829 C.3     1  UNL1        0.1122
      8 C         138.5816  140.1290  161.6880 C.3     1  UNL1        0.0160
      9 C         138.2324  140.2427  160.2337 C.3     1  UNL1        0.0425
     10 C         137.8615  140.4513  158.6561 C.3     1  UNL1        0.1429
     11 N         137.5785  141.0197  157.2971 N.am    1  UNL1       -0.2061
     12 C         139.2432  141.2485  163.9373 C.2     1  UNL1        0.3506
     13 N         140.1204  142.1888  164.7095 N.2     1  UNL1       -0.0350
     14 C         140.1959  141.6960  166.1242 C.2     1  UNL1        0.2348
     15 C         140.9136  142.2200  167.3327 C.2     1  UNL1        0.0869
     16 C         140.8008  141.4990  168.6433 C.2     1  UNL1        0.1468
     17 C         139.9703  140.2541  168.7454 C.2     1  UNL1        0.0200
     18 C         139.2526  139.7301  167.5369 C.3     1  UNL1        0.1068
     19 C         139.3654  140.4510  166.2264 C.2     1  UNL1        0.2176
     20 N         138.7766  140.1745  164.8748 N.2     1  UNL1       -0.0389
     21 O         141.5185  142.0230  169.8517 O.2     1  UNL1       -0.4047
     22 C         142.9946  142.2837  169.7930 C.3     1  UNL1        0.5753
     23 F         144.4705  142.5443  169.7343 F       1  UNL1       -0.1328
     24 F         142.7780  143.6438  170.3870 F       1  UNL1       -0.1328
     25 F         143.2111  140.9235  169.1989 F       1  UNL1       -0.1328
     26 C         137.2025  140.2362  156.0746 C.ar    1  UNL1        0.1400
     27 C         135.9034  140.5119  155.3772 C.ar    1  UNL1        0.0348
     28 C         135.5274  139.7284  154.1547 C.ar    1  UNL1        0.0045
     29 C         136.4505  138.6691  153.6295 C.ar    1  UNL1        0.0208
     30 C         137.7496  138.3933  154.3268 C.ar    1  UNL1        0.1003
     31 N         138.1255  139.1769  155.5494 N.ar    1  UNL1       -0.2287
@<TRIPOS>BOND
     1     1     2    2
     2     2     3    1
     3     3     4    1
     4     4     5    1
     5     5     6    1
     6     6     7    1
     7     7    12    1
     8    12    13    2
     9    13    14    1
    10    14    15    2
    11    15    16    1
    12    16    21    1
    13    21    22    1
    14    22    23    1
    15    22    24    1
    16    22    25    1
    17    16    17    2
    18    17    18    1
    19    18    19    1
    20    19    20    2
    21     7     8    1
    22     8     9    1
    23     4    10    1
    24    10    11    1
    25    11    26    1
    26    26    27   ar
    27    27    28   ar
    28    28    29   ar
    29    29    30   ar
    30    30    31   ar
    31    11     2   am
    32    31    26   ar
    33     9     4    1
    34    20    12    1
    35    19    14    1
@<TRIPOS>MOLECULE
*****
 31 35 0 0 0
SMALL
GASTEIGER

@<TRIPOS>ATOM
      1 O         144.9164  143.9911  166.0295 O.2     1  UNL1       -0.2258
      2 C         144.0398  142.9341  165.4260 C.2     1  UNL1        0.4097
      3 O         144.1424  142.3948  164.0299 O.3     1  UNL1       -0.4398
      4 C         143.0727  141.3582  163.8536 C.3     1  UNL1        0.1561
      5 C         143.9239  141.5696  162.6368 C.3     1  UNL1        0.0425
      6 C         143.6636  140.7741  161.3921 C.3     1  UNL1        0.0160
      7 C         142.5521  139.7672  161.3642 C.3     1  UNL1        0.1122
      8 C         141.7009  139.5558  162.5810 C.3     1  UNL1        0.0160
      9 C         141.9612  140.3513  163.8258 C.3     1  UNL1        0.0425
     10 C         142.3089  141.2568  165.1407 C.3     1  UNL1        0.1429
     11 N         142.9066  142.2307  166.1124 N.am    1  UNL1       -0.2061
     12 C         142.2918  138.9717  160.1194 C.2     1  UNL1        0.3506
     13 N         143.1981  137.9301  159.5330 N.2     1  UNL1       -0.0350
     14 C         142.5460  137.3928  158.2937 C.2     1  UNL1        0.2348
     15 C         142.9752  136.3492  157.3055 C.2     1  UNL1        0.0869
     16 C         142.0951  136.0150  156.1377 C.2     1  UNL1        0.1468
     17 C         140.7858  136.7245  155.9581 C.2     1  UNL1        0.0200
     18 C         140.3565  137.7681  156.9463 C.3     1  UNL1        0.1068
     19 C         141.2366  138.1023  158.1141 C.2     1  UNL1        0.2176
     20 N         141.0795  139.0781  159.2424 N.2     1  UNL1       -0.0389
     21 O         142.5243  134.9714  155.1495 O.2     1  UNL1       -0.4047
     22 C         142.5760  133.5287  155.5571 C.3     1  UNL1        0.5753
     23 F         142.6276  132.0861  155.9647 F       1  UNL1       -0.1328
     24 F         144.0642  133.6269  155.7162 F       1  UNL1       -0.1328
     25 F         141.0877  133.4304  155.3979 F       1  UNL1       -0.1328
     26 C         142.4511  142.4609  167.5229 C.ar    1  UNL1        0.1400
     27 C         140.9923  142.6449  167.8193 C.ar    1  UNL1        0.0348
     28 C         140.5368  142.8750  169.2299 C.ar    1  UNL1        0.0045
     29 C         141.5402  142.9212  170.3439 C.ar    1  UNL1        0.0208
     30 C         142.9991  142.7372  170.0475 C.ar    1  UNL1        0.1003
     31 N         143.4545  142.5070  168.6369 N.ar    1  UNL1       -0.2287
@<TRIPOS>BOND
     1     1     2    2
     2     2     3    1
     3     3     4    1
     4     4     5    1
     5     5     6    1
     6     6     7    1
     7     7    12    1
     8    12    13    2
     9    13    14    1
    10    14    15    2
    11    15    16    1
    12    16    21    1
    13    21    22    1
    14    22    23    1
    15    22    24    1
    16    22    25    1
    17    16    17    2
    18    17    18    1
    19    18    19    1
    20    19    20    2
    21     7     8    1
    22     8     9    1
    23     4    10    1
    24    10    11    1
    25    11    26    1
    26    26    27   ar
    27    27    28   ar
    28    28    29   ar
    29    29    30   ar
    30    30    31   ar
    31    11     2   am
    32    31    26   ar
    33     9     4    1
    34    20    12    1
    35    19    14    1
@<TRIPOS>MOLECULE
*****
 31 35 0 0 0
SMALL
GASTEIGER

@<TRIPOS>ATOM
      1 O         145.2246  139.2271  155.3823 O.2     1  UNL1       -0.2258
      2 C         145.0435  140.2341  156.4792 C.2     1  UNL1        0.4097
      3 O         144.3355  140.0021  157.7811 O.3     1  UNL1       -0.4398
      4 C         144.3931  141.2745  158.5733 C.3     1  UNL1        0.1561
      5 C         143.6725  140.1564  159.2665 C.3     1  UNL1        0.0425
      6 C         143.0889  140.3725  160.6313 C.3     1  UNL1        0.0160
      7 C         143.2260  141.7066  161.3029 C.3     1  UNL1        0.1122
      8 C         143.9466  142.8248  160.6098 C.3     1  UNL1        0.0160
      9 C         144.5301  142.6087  159.2450 C.3     1  UNL1        0.0425
     10 C         145.1367  142.2930  157.7610 C.3     1  UNL1        0.1429
     11 N         145.5387  141.6500  156.4668 N.am    1  UNL1       -0.2061
     12 C         142.6424  141.9227  162.6678 C.2     1  UNL1        0.3506
     13 N         143.2410  141.4658  163.9651 N.2     1  UNL1       -0.0350
     14 C         142.3263  141.8943  165.0740 C.2     1  UNL1        0.2348
     15 C         142.4029  141.7205  166.5620 C.2     1  UNL1        0.0869
     16 C         141.3155  142.2685  167.4380 C.2     1  UNL1        0.1468
     17 C         140.1516  142.9902  166.8261 C.2     1  UNL1        0.0200
     18 C         140.0750  143.1639  165.3381 C.3     1  UNL1        0.1068
     19 C         141.1624  142.6160  164.4621 C.2     1  UNL1        0.2176
     20 N         141.3578  142.6336  162.9750 N.2     1  UNL1       -0.0389
     21 O         141.3920  142.0947  168.9259 O.2     1  UNL1       -0.4047
     22 C         140.4000  142.7860  169.8138 C.3     1  UNL1        0.5753
     23 F         139.4081  143.4772  170.7016 F       1  UNL1       -0.1328
     24 F         139.5181  141.5734  169.7724 F       1  UNL1       -0.1328
     25 F         141.2820  143.9986  169.8552 F       1  UNL1       -0.1328
     26 C         146.3018  142.3074  155.3554 C.ar    1  UNL1        0.1400
     27 C         147.7618  142.0155  155.1730 C.ar    1  UNL1        0.0348
     28 C         148.5249  142.6730  154.0615 C.ar    1  UNL1        0.0045
     29 C         147.8281  143.6223  153.1324 C.ar    1  UNL1        0.0208
     30 C         146.3681  143.9143  153.3148 C.ar    1  UNL1        0.1003
     31 N         145.6050  143.2568  154.4263 N.ar    1  UNL1       -0.2287
@<TRIPOS>BOND
     1     1     2    2
     2     2     3    1
     3     3     4    1
     4     4     5    1
     5     5     6    1
     6     6     7    1
     7     7    12    1
     8    12    13    2
     9    13    14    1
    10    14    15    2
    11    15    16    1
    12    16    21    1
    13    21    22    1
    14    22    23    1
    15    22    24    1
    16    22    25    1
    17    16    17    2
    18    17    18    1
    19    18    19    1
    20    19    20    2
    21     7     8    1
    22     8     9    1
    23     4    10    1
    24    10    11    1
    25    11    26    1
    26    26    27   ar
    27    27    28   ar
    28    28    29   ar
    29    29    30   ar
    30    30    31   ar
    31    11     2   am
    32    31    26   ar
    33     9     4    1
    34    20    12    1
    35    19    14    1
@<TRIPOS>MOLECULE
*****
 31 35 0 0 0
SMALL
GASTEIGER

@<TRIPOS>ATOM
      1 O         137.4844  138.4893  167.7092 O.2     1  UNL1       -0.2258
      2 C         138.4437  138.9056  166.6339 C.2     1  UNL1        0.4097
      3 O         138.4475  138.4135  165.2169 O.3     1  UNL1       -0.4398
      4 C         139.5738  139.0909  164.4939 C.3     1  UNL1        0.1561
      5 C         138.7851  138.1415  163.6415 C.3     1  UNL1        0.0425
      6 C         139.1544  137.9430  162.2013 C.3     1  UNL1        0.0160
      7 C         140.3123  138.6938  161.6135 C.3     1  UNL1        0.1122
      8 C         141.1010  139.6431  162.4660 C.3     1  UNL1        0.0160
      9 C         140.7318  139.8417  163.9061 C.3     1  UNL1        0.0425
     10 C         140.2661  140.0017  165.4642 C.3     1  UNL1        0.1429
     11 N         139.5676  139.8872  166.7867 N.am    1  UNL1       -0.2061
     12 C         140.6815  138.4952  160.1733 C.2     1  UNL1        0.3506
     13 N         139.7225  138.3205  159.0332 N.2     1  UNL1       -0.0350
     14 C         140.5229  138.1538  157.7756 C.2     1  UNL1        0.2348
     15 C         140.1158  137.9460  156.3469 C.2     1  UNL1        0.0869
     16 C         141.1625  137.8099  155.2811 C.2     1  UNL1        0.1468
     17 C         142.6161  137.8816  155.6439 C.2     1  UNL1        0.0200
     18 C         143.0232  138.0894  157.0725 C.3     1  UNL1        0.1068
     19 C         141.9766  138.2255  158.1384 C.2     1  UNL1        0.2176
     20 N         142.0746  138.4365  159.6202 N.2     1  UNL1       -0.0389
     21 O         140.7554  137.6020  153.8524 O.2     1  UNL1       -0.4047
     22 C         141.3657  136.4892  153.0529 C.3     1  UNL1        0.5753
     23 F         141.9760  135.3763  152.2535 F       1  UNL1       -0.1328
     24 F         140.4747  135.5021  153.7468 F       1  UNL1       -0.1328
     25 F         142.2568  137.4763  152.3590 F       1  UNL1       -0.1328
     26 C         139.9295  140.6248  168.0416 C.ar    1  UNL1        0.1400
     27 C         140.2796  142.0821  167.9806 C.ar    1  UNL1        0.0348
     28 C         140.6415  142.8197  169.2356 C.ar    1  UNL1        0.0045
     29 C         140.6533  142.1000  170.5516 C.ar    1  UNL1        0.0208
     30 C         140.3032  140.6427  170.6126 C.ar    1  UNL1        0.1003
     31 N         139.9413  139.9051  169.3576 N.ar    1  UNL1       -0.2287
@<TRIPOS>BOND
     1     1     2    2
     2     2     3    1
     3     3     4    1
     4     4     5    1
     5     5     6    1
     6     6     7    1
     7     7    12    1
     8    12    13    2
     9    13    14    1
    10    14    15    2
    11    15    16    1
    12    16    21    1
    13    21    22    1
    14    22    23    1
    15    22    24    1
    16    22    25    1
    17    16    17    2
    18    17    18    1
    19    18    19    1
    20    19    20    2
    21     7     8    1
    22     8     9    1
    23     4    10    1
    24    10    11    1
    25    11    26    1
    26    26    27   ar
    27    27    28   ar
    28    28    29   ar
    29    29    30   ar
    30    30    31   ar
    31    11     2   am
    32    31    26   ar
    33     9     4    1
    34    20    12    1
    35    19    14    1
@<TRIPOS>MOLECULE
*****
 31 35 0 0 0
SMALL
GASTEIGER

@<TRIPOS>ATOM
      1 O         140.0590  146.6861  155.9825 O.2     1  UNL1       -0.2258
      2 C         139.9406  145.6039  157.0143 C.2     1  UNL1        0.4097
      3 O         140.4564  145.6670  158.4215 O.3     1  UNL1       -0.4398
      4 C         140.1202  144.3706  159.0970 C.3     1  UNL1        0.1561
      5 C         140.8521  145.3433  159.9734 C.3     1  UNL1        0.0425
      6 C         141.1816  144.9758  161.3898 C.3     1  UNL1        0.0160
      7 C         140.7792  143.6355  161.9299 C.3     1  UNL1        0.1122
      8 C         140.0472  142.6628  161.0536 C.3     1  UNL1        0.0160
      9 C         139.7177  143.0303  159.6371 C.3     1  UNL1        0.0425
     10 C         139.3966  143.5062  158.1073 C.3     1  UNL1        0.1429
     11 N         139.2856  144.2684  156.8202 N.am    1  UNL1       -0.2061
     12 C         141.1087  143.2680  163.3464 C.2     1  UNL1        0.3506
     13 N         140.1186  142.9896  164.4382 N.2     1  UNL1       -0.0350
     14 C         140.8842  142.6639  165.6863 C.2     1  UNL1        0.2348
     15 C         140.4379  142.3071  167.0732 C.2     1  UNL1        0.0869
     16 C         141.4550  142.0273  168.1397 C.2     1  UNL1        0.1468
     17 C         142.9183  142.1045  167.8192 C.2     1  UNL1        0.0200
     18 C         143.3646  142.4613  166.4323 C.3     1  UNL1        0.1068
     19 C         142.3476  142.7410  165.3659 C.2     1  UNL1        0.2176
     20 N         142.4863  143.1143  163.9197 N.2     1  UNL1       -0.0389
     21 O         141.0088  141.6705  169.5266 O.2     1  UNL1       -0.4047
     22 C         140.1249  142.6081  170.2946 C.3     1  UNL1        0.5753
     23 F         139.2411  143.5457  171.0625 F       1  UNL1       -0.1328
     24 F         141.2122  143.6414  170.2843 F       1  UNL1       -0.1328
     25 F         139.0377  141.5748  170.3049 F       1  UNL1       -0.1328
     26 C         138.6340  143.7808  155.5602 C.ar    1  UNL1        0.1400
     27 C         137.4148  144.4748  155.0293 C.ar    1  UNL1        0.0348
     28 C         136.7633  143.9872  153.7692 C.ar    1  UNL1        0.0045
     29 C         137.3309  142.8056  153.0401 C.ar    1  UNL1        0.0208
     30 C         138.5502  142.1116  153.5711 C.ar    1  UNL1        0.1003
     31 N         139.2017  142.5992  154.8311 N.ar    1  UNL1       -0.2287
@<TRIPOS>BOND
     1     1     2    2
     2     2     3    1
     3     3     4    1
     4     4     5    1
     5     5     6    1
     6     6     7    1
     7     7    12    1
     8    12    13    2
     9    13    14    1
    10    14    15    2
    11    15    16    1
    12    16    21    1
    13    21    22    1
    14    22    23    1
    15    22    24    1
    16    22    25    1
    17    16    17    2
    18    17    18    1
    19    18    19    1
    20    19    20    2
    21     7     8    1
    22     8     9    1
    23     4    10    1
    24    10    11    1
    25    11    26    1
    26    26    27   ar
    27    27    28   ar
    28    28    29   ar
    29    29    30   ar
    30    30    31   ar
    31    11     2   am
    32    31    26   ar
    33     9     4    1
    34    20    12    1
    35    19    14    1
