@<TRIPOS>MOLECULE
*****
 39 43 0 0 0
SMALL
GASTEIGER

@<TRIPOS>ATOM
      1 N         143.6907  140.1499  161.4044 N.ar    1  UNL1       -0.3123
      2 C         143.6752  139.6591  159.9871 C.ar    1  UNL1        0.0961
      3 C         142.4823  138.7655  159.8190 C.ar    1  UNL1        0.0997
      4 N         141.7604  138.7040  161.1324 N.ar    1  UNL1       -0.2309
      5 C         142.5073  139.5596  162.1123 C.ar    1  UNL1        0.1200
      6 C         142.0815  138.0576  158.5586 C.ar    1  UNL1        0.0193
      7 C         140.8478  138.4833  157.8192 C.ar    1  UNL1        0.0038
      8 C         140.4471  137.7754  156.5589 C.ar    1  UNL1        0.0296
      9 C         141.2801  136.6419  156.0381 C.ar    1  UNL1        0.1440
     10 F         140.8793  135.9340  154.7778 F       1  UNL1       -0.2042
     11 C         142.5138  136.2162  156.7775 C.ar    1  UNL1        0.0988
     12 C         142.9145  136.9241  158.0378 C.ar    1  UNL1        0.0077
     13 C         143.3467  135.0827  156.2567 C.3     1  UNL1        0.4207
     14 F         144.1797  133.9491  155.7359 F       1  UNL1       -0.1658
     15 F         144.3821  136.0602  155.7852 F       1  UNL1       -0.1658
     16 F         142.3113  134.1051  156.7283 F       1  UNL1       -0.1658
     17 C         142.1359  139.7853  163.5480 C.3     1  UNL1        0.0603
     18 C         141.4761  141.0680  163.9593 C.3     1  UNL1        0.0290
     19 C         141.1048  141.2937  165.3949 C.3     1  UNL1        0.0926
     20 N         141.3932  140.2367  166.4193 N.pl3   1  UNL1       -0.2934
     21 C         142.0530  138.9538  166.0080 C.3     1  UNL1        0.0926
     22 C         142.4243  138.7282  164.5724 C.3     1  UNL1        0.0290
     23 C         141.0218  140.4624  167.8549 C.ar    1  UNL1        0.1320
     24 N         142.0033  141.1017  168.7919 N.ar    1  UNL1       -0.2092
     25 C         141.6319  141.3274  170.2276 C.ar    1  UNL1        0.2012
     26 N         140.2790  140.9137  170.7263 N.ar    1  UNL1       -0.2097
     27 C         139.2975  140.2744  169.7893 C.ar    1  UNL1        0.1257
     28 N         137.9447  139.8608  170.2880 N.pl3   1  UNL1       -0.3428
     29 C         139.6689  140.0487  168.3536 C.ar    1  UNL1        0.0402
     30 H         137.7010  140.0089  171.2303 H       1  UNL1        0.1437
     31 H         137.3005  139.4412  169.6731 H       1  UNL1        0.1437
     32 C         138.6874  139.4094  167.4167 C.3     1  UNL1        0.0278
     33 C         137.6668  138.3481  167.1302 C.3     1  UNL1        0.0049
     34 C         138.0080  139.3634  166.0801 C.3     1  UNL1        0.0049
     35 C         144.7105  141.0695  162.0079 C.3     1  UNL1        0.1245
     36 C         144.5108  142.5549  161.9461 C.3     1  UNL1        0.0970
     37 C         143.8096  144.7410  163.1624 C.3     1  UNL1        0.0897
     38 N         144.3532  143.3438  163.2121 N.3     1  UNL1       -0.2687
     39 C         144.7391  142.7356  164.5277 C.3     1  UNL1        0.0897
@<TRIPOS>BOND
     1    37    38    1
     2    38    39    1
     3    38    36    1
     4    36    35    1
     5    35     1    1
     6     1     2   ar
     7     2     3   ar
     8     3     6    1
     9     6     7   ar
    10     7     8   ar
    11     8     9   ar
    12     9    10    1
    13     9    11   ar
    14    11    13    1
    15    13    14    1
    16    13    15    1
    17    13    16    1
    18    11    12   ar
    19     3     4   ar
    20     4     5   ar
    21     5    17    1
    22    17    18    1
    23    18    19    1
    24    19    20    1
    25    20    23    1
    26    23    24   ar
    27    24    25   ar
    28    25    26   ar
    29    26    27   ar
    30    27    28    1
    31    27    29   ar
    32    29    32    1
    33    32    33    1
    34    33    34    1
    35    20    21    1
    36    21    22    1
    37     5     1   ar
    38    22    17    1
    39    12     6   ar
    40    29    23   ar
    41    34    32    1
    42    28    30    1
    43    28    31    1
@<TRIPOS>MOLECULE
*****
 39 43 0 0 0
SMALL
GASTEIGER

@<TRIPOS>ATOM
      1 N         142.4512  141.3417  160.6704 N.ar    1  UNL1       -0.3123
      2 C         142.4685  140.7390  159.2970 C.ar    1  UNL1        0.0961
      3 C         141.7423  139.4279  159.3569 C.ar    1  UNL1        0.0997
      4 N         141.2761  139.2203  160.7675 N.ar    1  UNL1       -0.2309
      5 C         141.7143  140.4031  161.5793 C.ar    1  UNL1        0.1200
      6 C         141.5211  138.4891  158.2080 C.ar    1  UNL1        0.0193
      7 C         140.2531  138.5657  157.4104 C.ar    1  UNL1        0.0038
      8 C         140.0319  137.6270  156.2616 C.ar    1  UNL1        0.0296
      9 C         141.0787  136.6117  155.9104 C.ar    1  UNL1        0.1440
     10 F         140.8575  135.6730  154.7615 F       1  UNL1       -0.2042
     11 C         142.3467  136.5351  156.7080 C.ar    1  UNL1        0.0988
     12 C         142.5679  137.4738  157.8568 C.ar    1  UNL1        0.0077
     13 C         143.3935  135.5198  156.3568 C.3     1  UNL1        0.4207
     14 F         144.4403  134.5045  156.0056 F       1  UNL1       -0.1658
     15 F         142.6034  134.4600  157.0656 F       1  UNL1       -0.1658
     16 F         144.1836  136.5796  155.6480 F       1  UNL1       -0.1658
     17 C         141.4601  140.6108  163.0429 C.3     1  UNL1        0.0603
     18 C         142.2677  139.8585  164.0586 C.3     1  UNL1        0.0290
     19 C         142.0136  140.0662  165.5222 C.3     1  UNL1        0.0926
     20 N         140.9518  141.0263  165.9701 N.pl3   1  UNL1       -0.2934
     21 C         140.1440  141.7787  164.9544 C.3     1  UNL1        0.0926
     22 C         140.3983  141.5709  163.4909 C.3     1  UNL1        0.0290
     23 C         140.6976  141.2341  167.4338 C.ar    1  UNL1        0.1320
     24 N         141.5091  142.2353  168.2012 N.ar    1  UNL1       -0.2092
     25 C         141.2549  142.4431  169.6649 C.ar    1  UNL1        0.2012
     26 N         140.1892  141.6495  170.3611 N.ar    1  UNL1       -0.2097
     27 C         139.3777  140.6482  169.5936 C.ar    1  UNL1        0.1257
     28 N         138.3120  139.8547  170.2899 N.pl3   1  UNL1       -0.3428
     29 C         139.6319  140.4405  168.1300 C.ar    1  UNL1        0.0402
     30 H         138.1452  139.9911  171.2505 H       1  UNL1        0.1437
     31 H         137.7794  139.1976  169.7862 H       1  UNL1        0.1437
     32 C         138.8204  139.4392  167.3625 C.3     1  UNL1        0.0278
     33 C         138.6425  138.5571  166.1625 C.3     1  UNL1        0.0049
     34 C         137.5927  138.5871  167.2334 C.3     1  UNL1        0.0049
     35 C         143.0634  142.6528  161.0656 C.3     1  UNL1        0.1245
     36 C         144.4585  142.6939  161.6151 C.3     1  UNL1        0.0970
     37 C         143.8490  143.2695  164.0742 C.3     1  UNL1        0.0897
     38 N         144.6906  142.5171  163.0865 N.3     1  UNL1       -0.2687
     39 C         145.7643  141.5880  163.5701 C.3     1  UNL1        0.0897
@<TRIPOS>BOND
     1    37    38    1
     2    38    39    1
     3    38    36    1
     4    36    35    1
     5    35     1    1
     6     1     2   ar
     7     2     3   ar
     8     3     6    1
     9     6     7   ar
    10     7     8   ar
    11     8     9   ar
    12     9    10    1
    13     9    11   ar
    14    11    13    1
    15    13    14    1
    16    13    15    1
    17    13    16    1
    18    11    12   ar
    19     3     4   ar
    20     4     5   ar
    21     5    17    1
    22    17    18    1
    23    18    19    1
    24    19    20    1
    25    20    23    1
    26    23    24   ar
    27    24    25   ar
    28    25    26   ar
    29    26    27   ar
    30    27    28    1
    31    27    29   ar
    32    29    32    1
    33    32    33    1
    34    33    34    1
    35    20    21    1
    36    21    22    1
    37     5     1   ar
    38    22    17    1
    39    12     6   ar
    40    29    23   ar
    41    34    32    1
    42    28    30    1
    43    28    31    1
@<TRIPOS>MOLECULE
*****
 39 43 0 0 0
SMALL
GASTEIGER

@<TRIPOS>ATOM
      1 N         141.5772  144.4268  161.7511 N.ar    1  UNL1       -0.3123
      2 C         141.8317  144.4727  160.2736 C.ar    1  UNL1        0.0961
      3 C         142.6588  143.2759  159.9083 C.ar    1  UNL1        0.0997
      4 N         142.9155  142.4903  161.1600 N.ar    1  UNL1       -0.2309
      5 C         142.2471  143.2016  162.2990 C.ar    1  UNL1        0.1200
      6 C         143.1441  142.9261  158.5327 C.ar    1  UNL1        0.0193
      7 C         142.1682  142.8137  157.3991 C.ar    1  UNL1        0.0038
      8 C         142.6534  142.4639  156.0236 C.ar    1  UNL1        0.0296
      9 C         144.1146  142.2265  155.7816 C.ar    1  UNL1        0.1440
     10 F         144.5999  141.8767  154.4060 F       1  UNL1       -0.2042
     11 C         145.0905  142.3389  156.9151 C.ar    1  UNL1        0.0988
     12 C         144.6053  142.6887  158.2906 C.ar    1  UNL1        0.0077
     13 C         146.5517  142.1016  156.6731 C.3     1  UNL1        0.4207
     14 F         148.0129  141.8642  156.4311 F       1  UNL1       -0.1658
     15 F         146.2274  140.8114  155.9801 F       1  UNL1       -0.1658
     16 F         146.8761  143.3917  157.3661 F       1  UNL1       -0.1658
     17 C         142.2482  142.7644  163.7339 C.3     1  UNL1        0.0603
     18 C         141.0191  142.1452  164.3302 C.3     1  UNL1        0.0290
     19 C         141.0202  141.7080  165.7651 C.3     1  UNL1        0.0926
     20 N         142.2505  141.8901  166.6036 N.pl3   1  UNL1       -0.2934
     21 C         143.4798  142.5094  166.0072 C.3     1  UNL1        0.0926
     22 C         143.4785  142.9465  164.5724 C.3     1  UNL1        0.0290
     23 C         142.2517  141.4529  168.0385 C.ar    1  UNL1        0.1320
     24 N         141.8938  142.4287  169.1201 N.ar    1  UNL1       -0.2092
     25 C         141.8950  141.9915  170.5550 C.ar    1  UNL1        0.2012
     26 N         142.2540  140.5785  170.9082 N.ar    1  UNL1       -0.2097
     27 C         142.6119  139.6028  169.8266 C.ar    1  UNL1        0.1257
     28 N         142.9710  138.1899  170.1800 N.pl3   1  UNL1       -0.3428
     29 C         142.6108  140.0400  168.3917 C.ar    1  UNL1        0.0402
     30 H         142.9718  137.9030  171.1217 H       1  UNL1        0.1437
     31 H         143.2059  137.5495  169.4701 H       1  UNL1        0.1437
     32 C         142.9687  139.0643  167.3102 C.3     1  UNL1        0.0278
     33 C         143.8344  137.9509  166.7995 C.3     1  UNL1        0.0049
     34 C         142.7228  138.4876  165.9474 C.3     1  UNL1        0.0049
     35 C         140.7909  145.4300  162.5419 C.3     1  UNL1        0.1245
     36 C         139.2915  145.4066  162.5034 C.3     1  UNL1        0.0970
     37 C         138.5110  144.7325  164.8880 C.3     1  UNL1        0.0897
     38 N         138.5323  144.4828  163.4090 N.3     1  UNL1       -0.2687
     39 C         137.7945  143.3094  162.8357 C.3     1  UNL1        0.0897
@<TRIPOS>BOND
     1    37    38    1
     2    38    39    1
     3    38    36    1
     4    36    35    1
     5    35     1    1
     6     1     2   ar
     7     2     3   ar
     8     3     6    1
     9     6     7   ar
    10     7     8   ar
    11     8     9   ar
    12     9    10    1
    13     9    11   ar
    14    11    13    1
    15    13    14    1
    16    13    15    1
    17    13    16    1
    18    11    12   ar
    19     3     4   ar
    20     4     5   ar
    21     5    17    1
    22    17    18    1
    23    18    19    1
    24    19    20    1
    25    20    23    1
    26    23    24   ar
    27    24    25   ar
    28    25    26   ar
    29    26    27   ar
    30    27    28    1
    31    27    29   ar
    32    29    32    1
    33    32    33    1
    34    33    34    1
    35    20    21    1
    36    21    22    1
    37     5     1   ar
    38    22    17    1
    39    12     6   ar
    40    29    23   ar
    41    34    32    1
    42    28    30    1
    43    28    31    1
@<TRIPOS>MOLECULE
*****
 39 43 0 0 0
SMALL
GASTEIGER

@<TRIPOS>ATOM
      1 N         141.1318  142.3899  162.8571 N.ar    1  UNL1       -0.3123
      2 C         140.8710  142.7306  164.2944 C.ar    1  UNL1        0.0961
      3 C         141.0661  141.4860  165.1086 C.ar    1  UNL1        0.0997
      4 N         141.4475  140.3760  164.1745 N.ar    1  UNL1       -0.2309
      5 C         141.4882  140.9346  162.7830 C.ar    1  UNL1        0.1200
      6 C         140.9076  141.3714  166.5959 C.ar    1  UNL1        0.0193
      7 C         139.8644  140.4598  167.1710 C.ar    1  UNL1        0.0038
      8 C         139.7060  140.3454  168.6581 C.ar    1  UNL1        0.0296
      9 C         140.5907  141.1425  169.5702 C.ar    1  UNL1        0.1440
     10 F         140.4322  141.0280  171.0575 F       1  UNL1       -0.2042
     11 C         141.6339  142.0541  168.9951 C.ar    1  UNL1        0.0988
     12 C         141.7923  142.1685  167.5080 C.ar    1  UNL1        0.0077
     13 C         142.5186  142.8512  169.9072 C.3     1  UNL1        0.4207
     14 F         143.4033  143.6483  170.8193 F       1  UNL1       -0.1658
     15 F         141.4498  143.8964  170.0304 F       1  UNL1       -0.1658
     16 F         143.5873  141.8059  169.7840 F       1  UNL1       -0.1658
     17 C         141.8258  140.1720  161.5363 C.3     1  UNL1        0.0603
     18 C         140.7365  139.7595  160.5912 C.3     1  UNL1        0.0290
     19 C         141.0742  138.9968  159.3445 C.3     1  UNL1        0.0926
     20 N         142.5012  138.6467  159.0429 N.pl3   1  UNL1       -0.2934
     21 C         143.5906  139.0591  159.9880 C.3     1  UNL1        0.0926
     22 C         143.2528  139.8218  161.2346 C.3     1  UNL1        0.0290
     23 C         142.8388  137.8840  157.7962 C.ar    1  UNL1        0.1320
     24 N         142.7557  136.3863  157.7875 N.ar    1  UNL1       -0.2092
     25 C         143.0934  135.6237  156.5407 C.ar    1  UNL1        0.2012
     26 N         143.5142  136.3587  155.3026 N.ar    1  UNL1       -0.2097
     27 C         143.5973  137.8564  155.3113 C.ar    1  UNL1        0.1257
     28 N         144.0180  138.5914  154.0733 N.pl3   1  UNL1       -0.3428
     29 C         143.2596  138.6191  156.5581 C.ar    1  UNL1        0.0402
     30 H         144.2397  138.0908  153.2550 H       1  UNL1        0.1437
     31 H         144.0726  139.5743  154.0790 H       1  UNL1        0.1437
     32 C         143.3427  140.1167  156.5668 C.3     1  UNL1        0.0278
     33 C         142.6673  141.4549  156.6221 C.3     1  UNL1        0.0049
     34 C         144.1620  141.3726  156.5265 C.3     1  UNL1        0.0049
     35 C         141.0506  143.3378  161.6975 C.3     1  UNL1        0.1245
     36 C         142.1797  144.2867  161.4239 C.3     1  UNL1        0.0970
     37 C         144.5210  143.2124  161.7616 C.3     1  UNL1        0.0897
     38 N         143.4580  144.1752  162.2008 N.3     1  UNL1       -0.2687
     39 C         143.6732  145.0266  163.4169 C.3     1  UNL1        0.0897
@<TRIPOS>BOND
     1    37    38    1
     2    38    39    1
     3    38    36    1
     4    36    35    1
     5    35     1    1
     6     1     2   ar
     7     2     3   ar
     8     3     6    1
     9     6     7   ar
    10     7     8   ar
    11     8     9   ar
    12     9    10    1
    13     9    11   ar
    14    11    13    1
    15    13    14    1
    16    13    15    1
    17    13    16    1
    18    11    12   ar
    19     3     4   ar
    20     4     5   ar
    21     5    17    1
    22    17    18    1
    23    18    19    1
    24    19    20    1
    25    20    23    1
    26    23    24   ar
    27    24    25   ar
    28    25    26   ar
    29    26    27   ar
    30    27    28    1
    31    27    29   ar
    32    29    32    1
    33    32    33    1
    34    33    34    1
    35    20    21    1
    36    21    22    1
    37     5     1   ar
    38    22    17    1
    39    12     6   ar
    40    29    23   ar
    41    34    32    1
    42    28    30    1
    43    28    31    1
@<TRIPOS>MOLECULE
*****
 39 43 0 0 0
SMALL
GASTEIGER

@<TRIPOS>ATOM
      1 N         143.5607  141.5467  161.7262 N.ar    1  UNL1       -0.3123
      2 C         143.6727  141.1600  160.2813 C.ar    1  UNL1        0.0961
      3 C         142.6864  140.0610  160.0177 C.ar    1  UNL1        0.0997
      4 N         141.9648  139.7685  161.2997 N.ar    1  UNL1       -0.2309
      5 C         142.5051  140.6867  162.3557 C.ar    1  UNL1        0.1200
      6 C         142.4613  139.3750  158.7028 C.ar    1  UNL1        0.0193
      7 C         141.2145  138.5713  158.4799 C.ar    1  UNL1        0.0038
      8 C         140.9895  137.8854  157.1651 C.ar    1  UNL1        0.0296
      9 C         142.0112  138.0030  156.0732 C.ar    1  UNL1        0.1440
     10 F         141.7861  137.3170  154.7584 F       1  UNL1       -0.2042
     11 C         143.2580  138.8067  156.2961 C.ar    1  UNL1        0.0988
     12 C         143.4830  139.4926  157.6109 C.ar    1  UNL1        0.0077
     13 C         144.2797  138.9243  155.2042 C.3     1  UNL1        0.4207
     14 F         145.3014  139.0420  154.1123 F       1  UNL1       -0.1658
     15 F         144.6551  137.4854  155.4004 F       1  UNL1       -0.1658
     16 F         143.9042  140.3633  155.0079 F       1  UNL1       -0.1658
     17 C         142.0667  140.7362  163.7893 C.3     1  UNL1        0.0603
     18 C         142.4785  139.6493  164.7375 C.3     1  UNL1        0.0290
     19 C         142.0402  139.6988  166.1712 C.3     1  UNL1        0.0926
     20 N         141.1901  140.8352  166.6566 N.pl3   1  UNL1       -0.2934
     21 C         140.7783  141.9222  165.7085 C.3     1  UNL1        0.0926
     22 C         141.2166  141.8726  164.2749 C.3     1  UNL1        0.0290
     23 C         140.7518  140.8847  168.0903 C.ar    1  UNL1        0.1320
     24 N         141.5890  141.6039  169.1061 N.ar    1  UNL1       -0.2092
     25 C         141.1507  141.6534  170.5398 C.ar    1  UNL1        0.2012
     26 N         139.8751  140.9837  170.9577 N.ar    1  UNL1       -0.2097
     27 C         139.0379  140.2645  169.9419 C.ar    1  UNL1        0.1257
     28 N         137.7624  139.5949  170.3597 N.pl3   1  UNL1       -0.3428
     29 C         139.4762  140.2150  168.5082 C.ar    1  UNL1        0.0402
     30 H         137.4747  139.6274  171.3007 H       1  UNL1        0.1437
     31 H         137.2129  139.1229  169.6930 H       1  UNL1        0.1437
     32 C         138.6390  139.4958  167.4924 C.3     1  UNL1        0.0278
     33 C         138.1841  139.3195  166.0739 C.3     1  UNL1        0.0049
     34 C         137.6439  138.4265  167.1513 C.3     1  UNL1        0.0049
     35 C         144.3632  142.6072  162.4199 C.3     1  UNL1        0.1245
     36 C         144.0929  144.0558  162.1399 C.3     1  UNL1        0.0970
     37 C         142.2969  145.2248  163.6088 C.3     1  UNL1        0.0897
     38 N         142.7073  144.6059  162.3055 N.3     1  UNL1       -0.2687
     39 C         141.7321  144.5370  161.1679 C.3     1  UNL1        0.0897
@<TRIPOS>BOND
     1    37    38    1
     2    38    39    1
     3    38    36    1
     4    36    35    1
     5    35     1    1
     6     1     2   ar
     7     2     3   ar
     8     3     6    1
     9     6     7   ar
    10     7     8   ar
    11     8     9   ar
    12     9    10    1
    13     9    11   ar
    14    11    13    1
    15    13    14    1
    16    13    15    1
    17    13    16    1
    18    11    12   ar
    19     3     4   ar
    20     4     5   ar
    21     5    17    1
    22    17    18    1
    23    18    19    1
    24    19    20    1
    25    20    23    1
    26    23    24   ar
    27    24    25   ar
    28    25    26   ar
    29    26    27   ar
    30    27    28    1
    31    27    29   ar
    32    29    32    1
    33    32    33    1
    34    33    34    1
    35    20    21    1
    36    21    22    1
    37     5     1   ar
    38    22    17    1
    39    12     6   ar
    40    29    23   ar
    41    34    32    1
    42    28    30    1
    43    28    31    1
@<TRIPOS>MOLECULE
*****
 39 43 0 0 0
SMALL
GASTEIGER

@<TRIPOS>ATOM
      1 N         143.0460  140.4359  160.1898 N.ar    1  UNL1       -0.3123
      2 C         143.0182  139.8321  158.8170 C.ar    1  UNL1        0.0961
      3 C         142.2983  138.5189  158.9027 C.ar    1  UNL1        0.0997
      4 N         141.8813  138.3111  160.3284 N.ar    1  UNL1       -0.2309
      5 C         142.3433  139.4958  161.1239 C.ar    1  UNL1        0.1200
      6 C         142.0408  137.5785  157.7626 C.ar    1  UNL1        0.0193
      7 C         142.9477  136.4048  157.5391 C.ar    1  UNL1        0.0038
      8 C         142.6901  135.4646  156.3991 C.ar    1  UNL1        0.0296
      9 C         141.5258  135.6980  155.4827 C.ar    1  UNL1        0.1440
     10 F         141.2683  134.7577  154.3427 F       1  UNL1       -0.2042
     11 C         140.6189  136.8717  155.7063 C.ar    1  UNL1        0.0988
     12 C         140.8765  137.8120  156.8462 C.ar    1  UNL1        0.0077
     13 C         139.4546  137.1052  154.7899 C.3     1  UNL1        0.4207
     14 F         138.2902  137.3386  153.8735 F       1  UNL1       -0.1658
     15 F         140.3990  137.4672  153.6822 F       1  UNL1       -0.1658
     16 F         138.5102  136.7432  155.8976 F       1  UNL1       -0.1658
     17 C         142.1386  139.7040  162.5952 C.3     1  UNL1        0.0603
     18 C         141.4912  140.9627  163.0917 C.3     1  UNL1        0.0290
     19 C         141.2866  141.1709  164.5630 C.3     1  UNL1        0.0926
     20 N         141.7292  140.1204  165.5378 N.pl3   1  UNL1       -0.2934
     21 C         142.3767  138.8616  165.0414 C.3     1  UNL1        0.0926
     22 C         142.5813  138.6535  163.5701 C.3     1  UNL1        0.0290
     23 C         141.5246  140.3286  167.0091 C.ar    1  UNL1        0.1320
     24 N         142.6508  140.8391  167.8582 N.ar    1  UNL1       -0.2092
     25 C         142.4461  141.0473  169.3295 C.ar    1  UNL1        0.2012
     26 N         141.1151  140.7450  169.9518 N.ar    1  UNL1       -0.2097
     27 C         139.9889  140.2345  169.1027 C.ar    1  UNL1        0.1257
     28 N         138.6579  139.9322  169.7250 N.pl3   1  UNL1       -0.3428
     29 C         140.1935  140.0263  167.6314 C.ar    1  UNL1        0.0402
     30 H         138.5236  140.0688  170.6907 H       1  UNL1        0.1437
     31 H         137.9187  139.5971  169.1677 H       1  UNL1        0.1437
     32 C         139.0673  139.5158  166.7823 C.3     1  UNL1        0.0278
     33 C         137.9689  138.5231  166.5412 C.3     1  UNL1        0.0049
     34 C         138.2149  139.6243  165.5528 C.3     1  UNL1        0.0049
     35 C         143.6673  141.7492  160.5629 C.3     1  UNL1        0.1245
     36 C         144.8336  141.7862  161.5055 C.3     1  UNL1        0.0970
     37 C         144.2019  143.9386  162.8162 C.3     1  UNL1        0.0897
     38 N         144.7270  142.5336  162.8016 N.3     1  UNL1       -0.2687
     39 C         145.1453  141.8759  164.0832 C.3     1  UNL1        0.0897
@<TRIPOS>BOND
     1    37    38    1
     2    38    39    1
     3    38    36    1
     4    36    35    1
     5    35     1    1
     6     1     2   ar
     7     2     3   ar
     8     3     6    1
     9     6     7   ar
    10     7     8   ar
    11     8     9   ar
    12     9    10    1
    13     9    11   ar
    14    11    13    1
    15    13    14    1
    16    13    15    1
    17    13    16    1
    18    11    12   ar
    19     3     4   ar
    20     4     5   ar
    21     5    17    1
    22    17    18    1
    23    18    19    1
    24    19    20    1
    25    20    23    1
    26    23    24   ar
    27    24    25   ar
    28    25    26   ar
    29    26    27   ar
    30    27    28    1
    31    27    29   ar
    32    29    32    1
    33    32    33    1
    34    33    34    1
    35    20    21    1
    36    21    22    1
    37     5     1   ar
    38    22    17    1
    39    12     6   ar
    40    29    23   ar
    41    34    32    1
    42    28    30    1
    43    28    31    1
@<TRIPOS>MOLECULE
*****
 39 43 0 0 0
SMALL
GASTEIGER

@<TRIPOS>ATOM
      1 N         141.9346  139.6198  163.6141 N.ar    1  UNL1       -0.3123
      2 C         142.1289  139.2593  165.0571 C.ar    1  UNL1        0.0961
      3 C         141.6920  140.4279  165.8898 C.ar    1  UNL1        0.0997
      4 N         141.2277  141.5108  164.9615 N.ar    1  UNL1       -0.2309
      5 C         141.3776  141.0114  163.5550 C.ar    1  UNL1        0.1200
      6 C         141.7153  140.5009  167.3879 C.ar    1  UNL1        0.0193
      7 C         142.5766  139.5553  168.1715 C.ar    1  UNL1        0.0038
      8 C         142.5999  139.6283  169.6695 C.ar    1  UNL1        0.0296
      9 C         141.7619  140.6468  170.3839 C.ar    1  UNL1        0.1440
     10 F         141.7853  140.7197  171.8820 F       1  UNL1       -0.2042
     11 C         140.9007  141.5924  169.6003 C.ar    1  UNL1        0.0988
     12 C         140.8774  141.5194  168.1023 C.ar    1  UNL1        0.0077
     13 C         140.0627  142.6109  170.3147 C.3     1  UNL1        0.4207
     14 F         139.2248  143.6295  171.0291 F       1  UNL1       -0.1658
     15 F         141.2115  143.5751  170.2876 F       1  UNL1       -0.1658
     16 F         138.9139  141.6468  170.3419 F       1  UNL1       -0.1658
     17 C         141.0313  141.7703  162.3083 C.3     1  UNL1        0.0603
     18 C         142.0953  142.0748  161.2958 C.3     1  UNL1        0.0290
     19 C         141.7490  142.8337  160.0491 C.3     1  UNL1        0.0926
     20 N         140.3388  143.2880  159.8150 N.pl3   1  UNL1       -0.2934
     21 C         139.2748  142.9834  160.8276 C.3     1  UNL1        0.0926
     22 C         139.6211  142.2246  162.0741 C.3     1  UNL1        0.0290
     23 C         139.9926  144.0469  158.5683 C.ar    1  UNL1        0.1320
     24 N         140.3212  145.5066  158.4632 N.ar    1  UNL1       -0.2092
     25 C         139.9749  146.2655  157.2165 C.ar    1  UNL1        0.2012
     26 N         139.3000  145.5646  156.0749 N.ar    1  UNL1       -0.2097
     27 C         138.9714  144.1048  156.1800 C.ar    1  UNL1        0.1257
     28 N         138.2965  143.4039  155.0384 N.pl3   1  UNL1       -0.3428
     29 C         139.3176  143.3459  157.4267 C.ar    1  UNL1        0.0402
     30 H         138.0692  143.9020  154.2201 H       1  UNL1        0.1437
     31 H         138.0808  142.4458  155.1073 H       1  UNL1        0.1437
     32 C         138.9890  141.8861  157.5317 C.3     1  UNL1        0.0278
     33 C         137.9755  140.7899  157.6766 C.3     1  UNL1        0.0049
     34 C         139.4334  140.4539  157.5689 C.3     1  UNL1        0.0049
     35 C         142.2431  138.7429  162.4369 C.3     1  UNL1        0.1245
     36 C         141.3063  137.6329  162.0626 C.3     1  UNL1        0.0970
     37 C         139.2236  138.4059  160.7154 C.3     1  UNL1        0.0897
     38 N         139.8305  137.8905  161.9866 N.3     1  UNL1       -0.2687
     39 C         138.9617  137.6328  163.1819 C.3     1  UNL1        0.0897
@<TRIPOS>BOND
     1    37    38    1
     2    38    39    1
     3    38    36    1
     4    36    35    1
     5    35     1    1
     6     1     2   ar
     7     2     3   ar
     8     3     6    1
     9     6     7   ar
    10     7     8   ar
    11     8     9   ar
    12     9    10    1
    13     9    11   ar
    14    11    13    1
    15    13    14    1
    16    13    15    1
    17    13    16    1
    18    11    12   ar
    19     3     4   ar
    20     4     5   ar
    21     5    17    1
    22    17    18    1
    23    18    19    1
    24    19    20    1
    25    20    23    1
    26    23    24   ar
    27    24    25   ar
    28    25    26   ar
    29    26    27   ar
    30    27    28    1
    31    27    29   ar
    32    29    32    1
    33    32    33    1
    34    33    34    1
    35    20    21    1
    36    21    22    1
    37     5     1   ar
    38    22    17    1
    39    12     6   ar
    40    29    23   ar
    41    34    32    1
    42    28    30    1
    43    28    31    1
@<TRIPOS>MOLECULE
*****
 39 43 0 0 0
SMALL
GASTEIGER

@<TRIPOS>ATOM
      1 N         143.0511  139.1806  157.4264 N.ar    1  UNL1       -0.3123
      2 C         143.0705  138.2020  156.2898 C.ar    1  UNL1        0.0961
      3 C         142.9915  136.8197  156.8669 C.ar    1  UNL1        0.0997
      4 N         142.9232  136.9440  158.3601 N.ar    1  UNL1       -0.2309
      5 C         142.9600  138.4031  158.7060 C.ar    1  UNL1        0.1200
      6 C         142.9823  135.5380  156.0874 C.ar    1  UNL1        0.0193
      7 C         142.4808  135.5234  154.6739 C.ar    1  UNL1        0.0038
      8 C         142.4717  134.2419  153.8945 C.ar    1  UNL1        0.0296
      9 C         142.9641  132.9749  154.5288 C.ar    1  UNL1        0.1440
     10 F         142.9549  131.6932  153.7493 F       1  UNL1       -0.2042
     11 C         143.4656  132.9894  155.9423 C.ar    1  UNL1        0.0988
     12 C         143.4747  134.2710  156.7217 C.ar    1  UNL1        0.0077
     13 C         143.9580  131.7224  156.5766 C.3     1  UNL1        0.4207
     14 F         144.4504  130.4554  157.2108 F       1  UNL1       -0.1658
     15 F         142.5665  131.4166  157.0459 F       1  UNL1       -0.1658
     16 F         145.3495  132.0283  156.1072 F       1  UNL1       -0.1658
     17 C         142.9139  138.9829  160.0886 C.3     1  UNL1        0.0603
     18 C         144.0345  138.7192  161.0503 C.3     1  UNL1        0.0290
     19 C         143.9883  139.2990  162.4329 C.3     1  UNL1        0.0926
     20 N         142.8217  140.1426  162.8538 N.pl3   1  UNL1       -0.2934
     21 C         141.7011  140.4064  161.8921 C.3     1  UNL1        0.0926
     22 C         141.7473  139.8265  160.5096 C.3     1  UNL1        0.0290
     23 C         142.7756  140.7224  164.2364 C.ar    1  UNL1        0.1320
     24 N         143.5000  142.0008  164.5382 N.ar    1  UNL1       -0.2092
     25 C         143.4539  142.5806  165.9208 C.ar    1  UNL1        0.2012
     26 N         142.6833  141.8821  167.0018 N.ar    1  UNL1       -0.2097
     27 C         141.9589  140.6037  166.7000 C.ar    1  UNL1        0.1257
     28 N         141.1884  139.9052  167.7810 N.pl3   1  UNL1       -0.3428
     29 C         142.0050  140.0239  165.3174 C.ar    1  UNL1        0.0402
     30 H         141.1582  140.2858  168.6884 H       1  UNL1        0.1437
     31 H         140.7130  139.0662  167.5830 H       1  UNL1        0.1437
     32 C         141.2806  138.7455  165.0157 C.3     1  UNL1        0.0278
     33 C         141.3074  137.3028  164.6061 C.3     1  UNL1        0.0049
     34 C         139.9992  137.9740  164.9027 C.3     1  UNL1        0.0049
     35 C         143.1120  140.6744  157.3048 C.3     1  UNL1        0.1245
     36 C         144.2286  141.4350  157.9565 C.3     1  UNL1        0.0970
     37 C         142.9844  143.6133  158.6329 C.3     1  UNL1        0.0897
     38 N         143.9213  142.4928  158.9747 N.3     1  UNL1       -0.2687
     39 C         144.5508  142.4300  160.3348 C.3     1  UNL1        0.0897
@<TRIPOS>BOND
     1    37    38    1
     2    38    39    1
     3    38    36    1
     4    36    35    1
     5    35     1    1
     6     1     2   ar
     7     2     3   ar
     8     3     6    1
     9     6     7   ar
    10     7     8   ar
    11     8     9   ar
    12     9    10    1
    13     9    11   ar
    14    11    13    1
    15    13    14    1
    16    13    15    1
    17    13    16    1
    18    11    12   ar
    19     3     4   ar
    20     4     5   ar
    21     5    17    1
    22    17    18    1
    23    18    19    1
    24    19    20    1
    25    20    23    1
    26    23    24   ar
    27    24    25   ar
    28    25    26   ar
    29    26    27   ar
    30    27    28    1
    31    27    29   ar
    32    29    32    1
    33    32    33    1
    34    33    34    1
    35    20    21    1
    36    21    22    1
    37     5     1   ar
    38    22    17    1
    39    12     6   ar
    40    29    23   ar
    41    34    32    1
    42    28    30    1
    43    28    31    1
@<TRIPOS>MOLECULE
*****
 39 43 0 0 0
SMALL
GASTEIGER

@<TRIPOS>ATOM
      1 N         141.0370  141.5110  160.1143 N.ar    1  UNL1       -0.3123
      2 C         141.0824  140.8601  158.7636 C.ar    1  UNL1        0.0961
      3 C         140.9093  139.3825  158.9551 C.ar    1  UNL1        0.0997
      4 N         140.7569  139.1201  160.4241 N.ar    1  UNL1       -0.2309
      5 C         140.8358  140.4356  161.1405 C.ar    1  UNL1        0.1200
      6 C         140.8917  138.3487  157.8683 C.ar    1  UNL1        0.0193
      7 C         139.6980  138.2270  156.9682 C.ar    1  UNL1        0.0038
      8 C         139.6804  137.1933  155.8815 C.ar    1  UNL1        0.0296
      9 C         140.8566  136.2812  155.6949 C.ar    1  UNL1        0.1440
     10 F         140.8389  135.2474  154.6081 F       1  UNL1       -0.2042
     11 C         142.0503  136.4028  156.5950 C.ar    1  UNL1        0.0988
     12 C         142.0678  137.4366  157.6817 C.ar    1  UNL1        0.0077
     13 C         143.2264  135.4908  156.4083 C.3     1  UNL1        0.4207
     14 F         144.4025  134.5787  156.2217 F       1  UNL1       -0.1658
     15 F         142.3866  134.3216  156.8299 F       1  UNL1       -0.1658
     16 F         144.0662  136.6600  155.9868 F       1  UNL1       -0.1658
     17 C         140.7319  140.6398  162.6229 C.3     1  UNL1        0.0603
     18 C         139.5800  141.4121  163.1946 C.3     1  UNL1        0.0290
     19 C         139.4761  141.6163  164.6770 C.3     1  UNL1        0.0926
     20 N         140.5239  141.0483  165.5876 N.pl3   1  UNL1       -0.2934
     21 C         141.6758  140.2760  165.0159 C.3     1  UNL1        0.0926
     22 C         141.7797  140.0718  163.5336 C.3     1  UNL1        0.0290
     23 C         140.4199  141.2526  167.0700 C.ar    1  UNL1        0.1320
     24 N         141.2384  142.3163  167.7398 N.ar    1  UNL1       -0.2092
     25 C         141.1344  142.5205  169.2222 C.ar    1  UNL1        0.2012
     26 N         140.2119  141.6610  170.0348 N.ar    1  UNL1       -0.2097
     27 C         139.3935  140.5973  169.3651 C.ar    1  UNL1        0.1257
     28 N         138.4710  139.7378  170.1777 N.pl3   1  UNL1       -0.3428
     29 C         139.4974  140.3930  167.8827 C.ar    1  UNL1        0.0402
     30 H         138.4028  139.8718  171.1507 H       1  UNL1        0.1437
     31 H         137.9338  139.0396  169.7382 H       1  UNL1        0.1437
     32 C         138.6790  139.3293  167.2129 C.3     1  UNL1        0.0278
     33 C         137.5092  138.3904  167.2242 C.3     1  UNL1        0.0049
     34 C         138.4312  138.4256  166.0416 C.3     1  UNL1        0.0049
     35 C         141.1695  142.9794  160.3903 C.3     1  UNL1        0.1245
     36 C         139.9469  143.8044  160.6638 C.3     1  UNL1        0.0970
     37 C         140.2497  145.7819  159.0061 C.3     1  UNL1        0.0897
     38 N         139.9604  145.2790  160.3894 N.3     1  UNL1       -0.2687
     39 C         139.6846  146.2508  161.4982 C.3     1  UNL1        0.0897
@<TRIPOS>BOND
     1    37    38    1
     2    38    39    1
     3    38    36    1
     4    36    35    1
     5    35     1    1
     6     1     2   ar
     7     2     3   ar
     8     3     6    1
     9     6     7   ar
    10     7     8   ar
    11     8     9   ar
    12     9    10    1
    13     9    11   ar
    14    11    13    1
    15    13    14    1
    16    13    15    1
    17    13    16    1
    18    11    12   ar
    19     3     4   ar
    20     4     5   ar
    21     5    17    1
    22    17    18    1
    23    18    19    1
    24    19    20    1
    25    20    23    1
    26    23    24   ar
    27    24    25   ar
    28    25    26   ar
    29    26    27   ar
    30    27    28    1
    31    27    29   ar
    32    29    32    1
    33    32    33    1
    34    33    34    1
    35    20    21    1
    36    21    22    1
    37     5     1   ar
    38    22    17    1
    39    12     6   ar
    40    29    23   ar
    41    34    32    1
    42    28    30    1
    43    28    31    1
