@<TRIPOS>MOLECULE
*****
 33 36 0 0 0
SMALL
GASTEIGER

@<TRIPOS>ATOM
      1 C         141.4680  143.2038  161.6145 C.ar    1  UNL1        0.0537
      2 C         141.7849  142.1678  160.5770 C.ar    1  UNL1        0.0060
      3 C         142.2338  140.7994  160.9963 C.ar    1  UNL1        0.0173
      4 C         142.3659  140.4669  162.4529 C.ar    1  UNL1        0.0594
      5 C         142.0491  141.5028  163.4904 C.ar    1  UNL1        0.0130
      6 C         141.6001  142.8713  163.0711 C.ar    1  UNL1        0.0057
      7 C         142.2702  140.8890  164.8411 C.ar    1  UNL1       -0.0091
      8 C         142.7237  139.4737  164.6384 C.ar    1  UNL1        0.0331
      9 N         142.7829  139.2128  163.1624 N.ar    1  UNL1       -0.3289
     10 C         143.1878  137.9240  162.5104 C.3     1  UNL1        0.1301
     11 C         143.0242  138.6053  165.8239 C.3     1  UNL1        0.0435
     12 C         142.8712  139.1523  167.2122 C.3     1  UNL1        0.0066
     13 C         142.4177  140.5676  167.4150 C.3     1  UNL1        0.0049
     14 C         142.1172  141.4360  166.2293 C.3     1  UNL1        0.0275
     15 C         142.2647  141.1146  168.8033 C.3     1  UNL1        0.0053
     16 C         142.9150  142.4148  169.1730 C.3     1  UNL1        0.0322
     17 C         142.7620  142.9618  170.5613 C.3     1  UNL1        0.1422
     18 O         141.9587  142.2085  171.5799 O.3     1  UNL1       -0.3538
     19 C         141.3084  140.9083  171.2102 C.3     1  UNL1        0.1422
     20 C         141.4614  140.3614  169.8219 C.3     1  UNL1        0.0322
     21 N         139.8972  145.2498  161.9247 N.am    1  UNL1       -0.2743
     22 C         139.4482  146.6182  161.5055 C.3     1  UNL1        0.1152
     23 C         141.0191  144.5723  161.1952 C.2     1  UNL1        0.2491
     24 O         141.6921  145.2632  160.0465 O.2     1  UNL1       -0.2699
     25 C         139.2241  144.5588  163.0735 C.3     1  UNL1        0.0943
     26 C         137.8979  143.8876  162.8721 C.3     1  UNL1        0.0311
     27 C         137.8238  142.5742  162.1511 C.3     1  UNL1        0.0889
     28 N         137.6886  141.1139  164.2956 N.am    1  UNL1       -0.1932
     29 C         138.1409  141.3009  162.8777 C.2     1  UNL1        0.2446
     30 O         138.9102  140.2145  162.1864 O.2     1  UNL1       -0.2730
     31 H         137.1837  141.8269  164.7493 H       1  UNL1        0.1825
     32 C         138.8618  139.8728  166.2535 C.3     1  UNL1        0.2055
     33 O         138.0057  139.8405  165.0223 O.3     1  UNL1       -0.2636
@<TRIPOS>BOND
     1    32    33    1
     2    33    28    1
     3    28    29   am
     4    29    30    2
     5    29    27    1
     6    27    26    1
     7    26    25    1
     8    25    21    1
     9    21    22    1
    10    21    23   am
    11    23    24    2
    12    23     1    1
    13     1     2   ar
    14     2     3   ar
    15     3     4   ar
    16     4     5   ar
    17     5     6   ar
    18     5     7   ar
    19     7     8   ar
    20     8     9   ar
    21     9    10    1
    22     8    11    1
    23    11    12    1
    24    12    13    1
    25    13    15    1
    26    15    16    1
    27    16    17    1
    28    17    18    1
    29    18    19    1
    30    19    20    1
    31    13    14    1
    32     6     1   ar
    33    14     7    1
    34     9     4   ar
    35    20    15    1
    36    28    31    1
@<TRIPOS>MOLECULE
*****
 33 36 0 0 0
SMALL
GASTEIGER

@<TRIPOS>ATOM
      1 C         139.9312  143.0902  160.8022 C.ar    1  UNL1        0.0537
      2 C         139.3633  141.9142  160.0643 C.ar    1  UNL1        0.0060
      3 C         139.0614  140.6420  160.7994 C.ar    1  UNL1        0.0173
      4 C         139.3272  140.5459  162.2725 C.ar    1  UNL1        0.0594
      5 C         139.8951  141.7219  163.0104 C.ar    1  UNL1        0.0130
      6 C         140.1970  142.9940  162.2753 C.ar    1  UNL1        0.0057
      7 C         140.0507  141.3340  164.4511 C.ar    1  UNL1       -0.0091
      8 C         139.5791  139.9183  164.6035 C.ar    1  UNL1        0.0331
      9 N         139.1320  139.4312  163.2570 N.ar    1  UNL1       -0.3289
     10 C         138.5855  138.0686  162.9492 C.3     1  UNL1        0.1301
     11 C         139.6177  139.2555  165.9485 C.3     1  UNL1        0.0435
     12 C         140.1280  140.0086  167.1412 C.3     1  UNL1        0.0066
     13 C         140.5996  141.4243  166.9888 C.3     1  UNL1        0.0049
     14 C         140.5610  142.0870  165.6437 C.3     1  UNL1        0.0275
     15 C         141.1099  142.1773  168.1816 C.3     1  UNL1        0.0053
     16 C         142.4764  141.8832  168.7259 C.3     1  UNL1        0.0322
     17 C         142.9867  142.6363  169.9186 C.3     1  UNL1        0.1422
     18 O         142.1304  143.6834  170.5670 O.3     1  UNL1       -0.3538
     19 C         140.7639  143.9775  170.0227 C.3     1  UNL1        0.1422
     20 C         140.2537  143.2245  168.8300 C.3     1  UNL1        0.0322
     21 N         141.1583  144.3448  158.8864 N.am    1  UNL1       -0.2743
     22 C         141.4602  145.6169  158.1513 C.3     1  UNL1        0.1152
     23 C         140.2332  144.3623  160.0670 C.2     1  UNL1        0.2491
     24 O         139.6100  145.6519  160.5124 O.2     1  UNL1       -0.2699
     25 C         141.7815  143.0551  158.4410 C.3     1  UNL1        0.0943
     26 C         143.1621  142.6911  158.9006 C.3     1  UNL1        0.0311
     27 C         143.3640  142.0730  160.2524 C.3     1  UNL1        0.0889
     28 N         143.4837  144.2382  161.6831 N.am    1  UNL1       -0.1932
     29 C         143.9994  142.8688  161.3537 C.2     1  UNL1        0.2446
     30 O         145.1506  142.2951  162.1255 O.2     1  UNL1       -0.2730
     31 H         142.7281  144.6147  161.1765 H       1  UNL1        0.1825
     32 C         143.7677  144.7493  164.2146 C.3     1  UNL1        0.2055
     33 O         144.1191  145.0341  162.7844 O.3     1  UNL1       -0.2636
@<TRIPOS>BOND
     1    32    33    1
     2    33    28    1
     3    28    29   am
     4    29    30    2
     5    29    27    1
     6    27    26    1
     7    26    25    1
     8    25    21    1
     9    21    22    1
    10    21    23   am
    11    23    24    2
    12    23     1    1
    13     1     2   ar
    14     2     3   ar
    15     3     4   ar
    16     4     5   ar
    17     5     6   ar
    18     5     7   ar
    19     7     8   ar
    20     8     9   ar
    21     9    10    1
    22     8    11    1
    23    11    12    1
    24    12    13    1
    25    13    15    1
    26    15    16    1
    27    16    17    1
    28    17    18    1
    29    18    19    1
    30    19    20    1
    31    13    14    1
    32     6     1   ar
    33    14     7    1
    34     9     4   ar
    35    20    15    1
    36    28    31    1
@<TRIPOS>MOLECULE
*****
 33 36 0 0 0
SMALL
GASTEIGER

@<TRIPOS>ATOM
      1 C         141.8363  141.0442  160.7260 C.ar    1  UNL1        0.0537
      2 C         141.0337  139.9273  160.1273 C.ar    1  UNL1        0.0060
      3 C         140.1859  139.0576  161.0075 C.ar    1  UNL1        0.0173
      4 C         140.1408  139.3046  162.4863 C.ar    1  UNL1        0.0594
      5 C         140.9434  140.4214  163.0849 C.ar    1  UNL1        0.0130
      6 C         141.7912  141.2912  162.2047 C.ar    1  UNL1        0.0057
      7 C         140.7012  140.4246  164.5653 C.ar    1  UNL1       -0.0091
      8 C         139.7488  139.3098  164.8816 C.ar    1  UNL1        0.0331
      9 N         139.4025  138.6176  163.5967 N.ar    1  UNL1       -0.3289
     10 C         138.4798  137.4443  163.4482 C.3     1  UNL1        0.1301
     11 C         139.3200  139.0689  166.2986 C.3     1  UNL1        0.0435
     12 C         139.8437  139.9430  167.3994 C.3     1  UNL1        0.0066
     13 C         140.7961  141.0579  167.0832 C.3     1  UNL1        0.0049
     14 C         141.2248  141.2987  165.6661 C.3     1  UNL1        0.0275
     15 C         141.3197  141.9319  168.1840 C.3     1  UNL1        0.0053
     16 C         142.7348  141.7764  168.6563 C.3     1  UNL1        0.0322
     17 C         143.2585  142.6505  169.7572 C.3     1  UNL1        0.1422
     18 O         142.3668  143.6801  170.3858 O.3     1  UNL1       -0.3538
     19 C         140.9517  143.8356  169.9135 C.3     1  UNL1        0.1422
     20 C         140.4280  142.9616  168.8126 C.3     1  UNL1        0.0322
     21 N         142.0802  143.1052  159.1631 N.am    1  UNL1       -0.2743
     22 C         142.9280  143.9750  158.2829 C.3     1  UNL1        0.1152
     23 C         142.6841  141.9139  159.8458 C.2     1  UNL1        0.2491
     24 O         144.1359  141.5925  159.6482 O.2     1  UNL1       -0.2699
     25 C         140.6284  143.4268  159.3606 C.3     1  UNL1        0.0943
     26 C         140.2239  144.7636  159.9075 C.3     1  UNL1        0.0311
     27 C         140.0690  144.9529  161.3874 C.3     1  UNL1        0.0889
     28 N         142.6360  145.0934  161.7624 N.am    1  UNL1       -0.1932
     29 C         141.2594  144.8160  162.2897 C.2     1  UNL1        0.2446
     30 O         141.0732  144.4018  163.7193 O.2     1  UNL1       -0.2730
     31 H         142.7581  145.3652  160.8241 H       1  UNL1        0.1825
     32 C         144.5336  143.6386  162.7786 C.3     1  UNL1        0.2055
     33 O         143.8265  144.9565  162.6647 O.3     1  UNL1       -0.2636
@<TRIPOS>BOND
     1    32    33    1
     2    33    28    1
     3    28    29   am
     4    29    30    2
     5    29    27    1
     6    27    26    1
     7    26    25    1
     8    25    21    1
     9    21    22    1
    10    21    23   am
    11    23    24    2
    12    23     1    1
    13     1     2   ar
    14     2     3   ar
    15     3     4   ar
    16     4     5   ar
    17     5     6   ar
    18     5     7   ar
    19     7     8   ar
    20     8     9   ar
    21     9    10    1
    22     8    11    1
    23    11    12    1
    24    12    13    1
    25    13    15    1
    26    15    16    1
    27    16    17    1
    28    17    18    1
    29    18    19    1
    30    19    20    1
    31    13    14    1
    32     6     1   ar
    33    14     7    1
    34     9     4   ar
    35    20    15    1
    36    28    31    1
@<TRIPOS>MOLECULE
*****
 33 36 0 0 0
SMALL
GASTEIGER

@<TRIPOS>ATOM
      1 C         141.8506  140.8150  160.1000 C.ar    1  UNL1        0.0537
      2 C         141.3561  142.0082  159.3373 C.ar    1  UNL1        0.0060
      3 C         140.7238  143.1558  160.0675 C.ar    1  UNL1        0.0173
      4 C         140.5861  143.1103  161.5604 C.ar    1  UNL1        0.0594
      5 C         141.0807  141.9172  162.3232 C.ar    1  UNL1        0.0130
      6 C         141.7129  140.7696  161.5930 C.ar    1  UNL1        0.0057
      7 C         140.8107  142.1536  163.7797 C.ar    1  UNL1       -0.0091
      8 C         140.1493  143.4929  163.9170 C.ar    1  UNL1        0.0331
      9 N         140.0105  144.0842  162.5454 N.ar    1  UNL1       -0.3289
     10 C         139.4028  145.4155  162.2166 C.3     1  UNL1        0.1301
     11 C         139.7589  144.0010  165.2732 C.3     1  UNL1        0.0435
     12 C         140.0299  143.1699  166.4921 C.3     1  UNL1        0.0066
     13 C         140.6913  141.8306  166.3548 C.3     1  UNL1        0.0049
     14 C         141.0817  141.3225  164.9985 C.3     1  UNL1        0.0275
     15 C         140.9623  140.9994  167.5737 C.3     1  UNL1        0.0053
     16 C         142.2401  140.2214  167.6820 C.3     1  UNL1        0.0322
     17 C         142.5111  139.3902  168.9009 C.3     1  UNL1        0.1422
     18 O         141.5042  139.3371  170.0115 O.3     1  UNL1       -0.3538
     19 C         140.2263  140.1151  169.9032 C.3     1  UNL1        0.1422
     20 C         139.9553  140.9463  168.6843 C.3     1  UNL1        0.0322
     21 N         141.6234  138.6766  158.6422 N.am    1  UNL1       -0.2743
     22 C         142.2557  137.5290  157.9120 C.3     1  UNL1        0.1152
     23 C         142.4829  139.6674  159.3699 C.2     1  UNL1        0.2491
     24 O         143.9746  139.5106  159.3674 O.2     1  UNL1       -0.2699
     25 C         140.1316  138.8334  158.6446 C.3     1  UNL1        0.0943
     26 C         139.3598  138.6451  159.9169 C.3     1  UNL1        0.0311
     27 C         138.2501  139.5914  160.2681 C.3     1  UNL1        0.0889
     28 N         138.4613  139.0694  162.8043 N.am    1  UNL1       -0.1932
     29 C         138.0221  139.9823  161.6982 C.2     1  UNL1        0.2446
     30 O         137.3551  141.2862  162.0221 O.2     1  UNL1       -0.2730
     31 H         138.8991  138.2136  162.5917 H       1  UNL1        0.1825
     32 C         138.6523  138.5374  165.3402 C.3     1  UNL1        0.2055
     33 O         138.2333  139.4603  164.2345 O.3     1  UNL1       -0.2636
@<TRIPOS>BOND
     1    32    33    1
     2    33    28    1
     3    28    29   am
     4    29    30    2
     5    29    27    1
     6    27    26    1
     7    26    25    1
     8    25    21    1
     9    21    22    1
    10    21    23   am
    11    23    24    2
    12    23     1    1
    13     1     2   ar
    14     2     3   ar
    15     3     4   ar
    16     4     5   ar
    17     5     6   ar
    18     5     7   ar
    19     7     8   ar
    20     8     9   ar
    21     9    10    1
    22     8    11    1
    23    11    12    1
    24    12    13    1
    25    13    15    1
    26    15    16    1
    27    16    17    1
    28    17    18    1
    29    18    19    1
    30    19    20    1
    31    13    14    1
    32     6     1   ar
    33    14     7    1
    34     9     4   ar
    35    20    15    1
    36    28    31    1
@<TRIPOS>MOLECULE
*****
 33 36 0 0 0
SMALL
GASTEIGER

@<TRIPOS>ATOM
      1 C         141.8481  141.0440  160.8010 C.ar    1  UNL1        0.0537
      2 C         141.0757  139.9114  160.1923 C.ar    1  UNL1        0.0060
      3 C         140.2183  139.0373  161.0587 C.ar    1  UNL1        0.0173
      4 C         140.1332  139.2957  162.5337 C.ar    1  UNL1        0.0594
      5 C         140.9055  140.4284  163.1424 C.ar    1  UNL1        0.0130
      6 C         141.7630  141.3025  162.2760 C.ar    1  UNL1        0.0057
      7 C         140.6267  140.4404  164.6163 C.ar    1  UNL1       -0.0091
      8 C         139.6820  139.3151  164.9184 C.ar    1  UNL1        0.0331
      9 N         139.3770  138.6077  163.6313 N.ar    1  UNL1       -0.3289
     10 C         138.4743  137.4207  163.4701 C.3     1  UNL1        0.1301
     11 C         139.2215  139.0800  166.3264 C.3     1  UNL1        0.0435
     12 C         139.7058  139.9701  167.4324 C.3     1  UNL1        0.0066
     13 C         140.6505  141.0954  167.1303 C.3     1  UNL1        0.0049
     14 C         141.1109  141.3305  165.7222 C.3     1  UNL1        0.0275
     15 C         141.1348  141.9856  168.2362 C.3     1  UNL1        0.0053
     16 C         140.2270  143.0347  168.8065 C.3     1  UNL1        0.0322
     17 C         140.7113  143.9249  169.9125 C.3     1  UNL1        0.1422
     18 O         142.1034  143.7658  170.4481 O.3     1  UNL1       -0.3538
     19 C         143.0111  142.7167  169.8778 C.3     1  UNL1        0.1422
     20 C         142.5269  141.8265  168.7719 C.3     1  UNL1        0.0322
     21 N         142.1103  143.1156  159.2551 N.am    1  UNL1       -0.2743
     22 C         142.9677  143.9898  158.3887 C.3     1  UNL1        0.1152
     23 C         142.7055  141.9182  159.9346 C.2     1  UNL1        0.2491
     24 O         144.1583  141.5949  159.7477 O.2     1  UNL1       -0.2699
     25 C         140.6574  143.4390  159.4420 C.3     1  UNL1        0.0943
     26 C         140.2189  144.8664  159.5829 C.3     1  UNL1        0.0311
     27 C         140.2792  145.5410  160.9213 C.3     1  UNL1        0.0889
     28 N         138.2080  144.6286  162.1971 N.am    1  UNL1       -0.1932
     29 C         139.6864  144.8718  162.1258 C.2     1  UNL1        0.2446
     30 O         140.5721  144.4457  163.2590 O.2     1  UNL1       -0.2730
     31 H         137.6267  144.9083  161.4534 H       1  UNL1        0.1825
     32 C         137.6358  142.4639  163.5148 C.3     1  UNL1        0.2055
     33 O         137.6152  143.9594  163.4016 O.3     1  UNL1       -0.2636
@<TRIPOS>BOND
     1    32    33    1
     2    33    28    1
     3    28    29   am
     4    29    30    2
     5    29    27    1
     6    27    26    1
     7    26    25    1
     8    25    21    1
     9    21    22    1
    10    21    23   am
    11    23    24    2
    12    23     1    1
    13     1     2   ar
    14     2     3   ar
    15     3     4   ar
    16     4     5   ar
    17     5     6   ar
    18     5     7   ar
    19     7     8   ar
    20     8     9   ar
    21     9    10    1
    22     8    11    1
    23    11    12    1
    24    12    13    1
    25    13    15    1
    26    15    16    1
    27    16    17    1
    28    17    18    1
    29    18    19    1
    30    19    20    1
    31    13    14    1
    32     6     1   ar
    33    14     7    1
    34     9     4   ar
    35    20    15    1
    36    28    31    1
@<TRIPOS>MOLECULE
*****
 33 36 0 0 0
SMALL
GASTEIGER

@<TRIPOS>ATOM
      1 C         140.4372  140.3987  160.1532 C.ar    1  UNL1        0.0537
      2 C         139.9509  141.6201  159.4308 C.ar    1  UNL1        0.0060
      3 C         139.5867  142.8531  160.2035 C.ar    1  UNL1        0.0173
      4 C         139.7088  142.8648  161.6984 C.ar    1  UNL1        0.0594
      5 C         140.1951  141.6435  162.4207 C.ar    1  UNL1        0.0130
      6 C         140.5592  140.4104  161.6481 C.ar    1  UNL1        0.0057
      7 C         140.2124  141.9495  163.8892 C.ar    1  UNL1       -0.0091
      8 C         139.7368  143.3600  164.0743 C.ar    1  UNL1        0.0331
      9 N         139.4256  143.9257  162.7203 N.ar    1  UNL1       -0.3289
     10 C         138.9200  145.3094  162.4379 C.3     1  UNL1        0.1301
     11 C         139.6487  143.9471  165.4517 C.3     1  UNL1        0.0435
     12 C         140.0360  143.1236  166.6441 C.3     1  UNL1        0.0066
     13 C         140.5116  141.7131  166.4590 C.3     1  UNL1        0.0049
     14 C         140.5998  141.1261  165.0815 C.3     1  UNL1        0.0275
     15 C         140.8990  140.8896  167.6514 C.3     1  UNL1        0.0053
     16 C         142.1862  140.1197  167.6450 C.3     1  UNL1        0.0322
     17 C         142.5736  139.2962  168.8374 C.3     1  UNL1        0.1422
     18 O         141.6736  139.2427  170.0363 O.3     1  UNL1       -0.3538
     19 C         140.3864  140.0127  170.0428 C.3     1  UNL1        0.1422
     20 C         139.9990  140.8362  168.8504 C.3     1  UNL1        0.0322
     21 N         142.2434  138.8053  159.1794 N.am    1  UNL1       -0.2743
     22 C         142.6076  137.5722  158.4068 C.3     1  UNL1        0.1152
     23 C         140.8014  139.1657  159.3806 C.2     1  UNL1        0.2491
     24 O         139.7235  138.2930  158.8091 O.2     1  UNL1       -0.2699
     25 C         143.3214  139.6780  159.7508 C.3     1  UNL1        0.0943
     26 C         143.8135  140.8654  158.9777 C.3     1  UNL1        0.0311
     27 C         143.3745  142.2466  159.3645 C.3     1  UNL1        0.0889
     28 N         143.2145  144.0635  161.2146 N.am    1  UNL1       -0.1932
     29 C         143.9177  142.8856  160.6081 C.2     1  UNL1        0.2446
     30 O         145.1641  142.3465  161.2453 O.2     1  UNL1       -0.2730
     31 H         142.3964  144.4173  160.7965 H       1  UNL1        0.1825
     32 C         142.8281  145.0894  163.5701 C.3     1  UNL1        0.2055
     33 O         143.7577  144.7025  162.4583 O.3     1  UNL1       -0.2636
@<TRIPOS>BOND
     1    32    33    1
     2    33    28    1
     3    28    29   am
     4    29    30    2
     5    29    27    1
     6    27    26    1
     7    26    25    1
     8    25    21    1
     9    21    22    1
    10    21    23   am
    11    23    24    2
    12    23     1    1
    13     1     2   ar
    14     2     3   ar
    15     3     4   ar
    16     4     5   ar
    17     5     6   ar
    18     5     7   ar
    19     7     8   ar
    20     8     9   ar
    21     9    10    1
    22     8    11    1
    23    11    12    1
    24    12    13    1
    25    13    15    1
    26    15    16    1
    27    16    17    1
    28    17    18    1
    29    18    19    1
    30    19    20    1
    31    13    14    1
    32     6     1   ar
    33    14     7    1
    34     9     4   ar
    35    20    15    1
    36    28    31    1
@<TRIPOS>MOLECULE
*****
 33 36 0 0 0
SMALL
GASTEIGER

@<TRIPOS>ATOM
      1 C         139.7597  143.0444  160.5635 C.ar    1  UNL1        0.0537
      2 C         139.2051  142.0126  159.6267 C.ar    1  UNL1        0.0060
      3 C         138.7322  140.6926  160.1597 C.ar    1  UNL1        0.0173
      4 C         138.8139  140.4045  161.6294 C.ar    1  UNL1        0.0594
      5 C         139.3685  141.4363  162.5663 C.ar    1  UNL1        0.0130
      6 C         139.8414  142.7563  162.0333 C.ar    1  UNL1        0.0057
      7 C         139.3251  140.8722  163.9555 C.ar    1  UNL1       -0.0091
      8 C         138.7436  139.4917  163.8773 C.ar    1  UNL1        0.0331
      9 N         138.4277  139.2027  162.4397 N.ar    1  UNL1       -0.3289
     10 C         137.8304  137.9344  161.9060 C.3     1  UNL1        0.1301
     11 C         138.5769  138.6762  165.1251 C.3     1  UNL1        0.0435
     12 C         138.9917  139.2413  166.4512 C.3     1  UNL1        0.0066
     13 C         139.5732  140.6217  166.5295 C.3     1  UNL1        0.0049
     14 C         139.7399  141.4372  165.2816 C.3     1  UNL1        0.0275
     15 C         139.9880  141.1868  167.8557 C.3     1  UNL1        0.0053
     16 C         139.7432  140.4064  169.1131 C.3     1  UNL1        0.0322
     17 C         140.1580  140.9714  170.4392 C.3     1  UNL1        0.1422
     18 O         140.8177  142.3169  170.5080 O.3     1  UNL1       -0.3538
     19 C         141.0625  143.0973  169.2506 C.3     1  UNL1        0.1422
     20 C         140.6477  142.5322  167.9244 C.3     1  UNL1        0.0322
     21 N         141.3851  144.4167  159.0720 N.am    1  UNL1       -0.2743
     22 C         141.8580  145.7366  158.5390 C.3     1  UNL1        0.1152
     23 C         140.2326  144.3644  160.0306 C.2     1  UNL1        0.2491
     24 O         139.5531  145.6320  160.4563 O.2     1  UNL1       -0.2699
     25 C         142.0647  143.1490  158.6462 C.3     1  UNL1        0.0943
     26 C         143.4017  142.7853  159.2209 C.3     1  UNL1        0.0311
     27 C         143.6549  142.9451  160.6907 C.3     1  UNL1        0.0889
     28 N         142.9798  140.6758  161.7604 N.am    1  UNL1       -0.1932
     29 C         144.0015  141.7487  161.5265 C.2     1  UNL1        0.2446
     30 O         145.3699  141.6253  162.1283 O.2     1  UNL1       -0.2730
     31 H         142.0816  140.7568  161.3654 H       1  UNL1        0.1825
     32 C         143.6153  138.1629  161.9379 C.3     1  UNL1        0.2055
     33 O         143.3264  139.4793  162.5962 O.3     1  UNL1       -0.2636
@<TRIPOS>BOND
     1    32    33    1
     2    33    28    1
     3    28    29   am
     4    29    30    2
     5    29    27    1
     6    27    26    1
     7    26    25    1
     8    25    21    1
     9    21    22    1
    10    21    23   am
    11    23    24    2
    12    23     1    1
    13     1     2   ar
    14     2     3   ar
    15     3     4   ar
    16     4     5   ar
    17     5     6   ar
    18     5     7   ar
    19     7     8   ar
    20     8     9   ar
    21     9    10    1
    22     8    11    1
    23    11    12    1
    24    12    13    1
    25    13    15    1
    26    15    16    1
    27    16    17    1
    28    17    18    1
    29    18    19    1
    30    19    20    1
    31    13    14    1
    32     6     1   ar
    33    14     7    1
    34     9     4   ar
    35    20    15    1
    36    28    31    1
@<TRIPOS>MOLECULE
*****
 33 36 0 0 0
SMALL
GASTEIGER

@<TRIPOS>ATOM
      1 C         140.2271  140.3335  158.3248 C.ar    1  UNL1        0.0537
      2 C         140.5777  141.6115  157.6222 C.ar    1  UNL1        0.0060
      3 C         140.7001  142.8870  158.4021 C.ar    1  UNL1        0.0173
      4 C         140.4719  142.8844  159.8846 C.ar    1  UNL1        0.0594
      5 C         140.1214  141.6064  160.5872 C.ar    1  UNL1        0.0130
      6 C         139.9989  140.3310  159.8073 C.ar    1  UNL1        0.0057
      7 C         139.9550  141.9104  162.0467 C.ar    1  UNL1       -0.0091
      8 C         140.2027  143.3762  162.2460 C.ar    1  UNL1        0.0331
      9 N         140.5222  143.9782  160.9098 N.ar    1  UNL1       -0.3289
     10 C         140.8368  145.4208  160.6452 C.3     1  UNL1        0.1301
     11 C         140.1054  143.9735  163.6185 C.3     1  UNL1        0.0435
     12 C         139.7603  143.1049  164.7917 C.3     1  UNL1        0.0066
     13 C         139.5125  141.6390  164.5924 C.3     1  UNL1        0.0049
     14 C         139.6099  141.0418  163.2198 C.3     1  UNL1        0.0275
     15 C         139.1674  140.7703  165.7656 C.3     1  UNL1        0.0053
     16 C         138.1530  139.6756  165.6156 C.3     1  UNL1        0.0322
     17 C         137.8079  138.8070  166.7888 C.3     1  UNL1        0.1422
     18 O         138.4773  139.0331  168.1120 O.3     1  UNL1       -0.3538
     19 C         139.4917  140.1278  168.2620 C.3     1  UNL1        0.1422
     20 C         139.8368  140.9965  167.0888 C.3     1  UNL1        0.0322
     21 N         141.2790  138.1316  157.4332 N.am    1  UNL1       -0.2743
     22 C         141.1566  136.8562  156.6533 C.3     1  UNL1        0.1152
     23 C         140.1047  139.0581  157.5449 C.2     1  UNL1        0.2491
     24 O         138.8079  138.7090  156.8768 O.2     1  UNL1       -0.2699
     25 C         142.5759  138.4807  158.1013 C.3     1  UNL1        0.0943
     26 C         142.8999  137.9146  159.4521 C.3     1  UNL1        0.0311
     27 C         143.5370  138.7830  160.4961 C.3     1  UNL1        0.0889
     28 N         142.1672  137.6619  162.3977 N.am    1  UNL1       -0.1932
     29 C         143.3518  138.4661  161.9504 C.2     1  UNL1        0.2446
     30 O         144.3510  138.9532  162.9574 O.2     1  UNL1       -0.2730
     31 H         141.5114  137.3421  161.7368 H       1  UNL1        0.1825
     32 C         140.6011  137.2671  164.4328 C.3     1  UNL1        0.2055
     33 O         141.9819  137.3448  163.8521 O.3     1  UNL1       -0.2636
@<TRIPOS>BOND
     1    32    33    1
     2    33    28    1
     3    28    29   am
     4    29    30    2
     5    29    27    1
     6    27    26    1
     7    26    25    1
     8    25    21    1
     9    21    22    1
    10    21    23   am
    11    23    24    2
    12    23     1    1
    13     1     2   ar
    14     2     3   ar
    15     3     4   ar
    16     4     5   ar
    17     5     6   ar
    18     5     7   ar
    19     7     8   ar
    20     8     9   ar
    21     9    10    1
    22     8    11    1
    23    11    12    1
    24    12    13    1
    25    13    15    1
    26    15    16    1
    27    16    17    1
    28    17    18    1
    29    18    19    1
    30    19    20    1
    31    13    14    1
    32     6     1   ar
    33    14     7    1
    34     9     4   ar
    35    20    15    1
    36    28    31    1
@<TRIPOS>MOLECULE
*****
 33 36 0 0 0
SMALL
GASTEIGER

@<TRIPOS>ATOM
      1 C         142.2707  139.1671  161.0778 C.ar    1  UNL1        0.0537
      2 C         141.6224  140.3789  160.4770 C.ar    1  UNL1        0.0060
      3 C         141.3053  140.4109  159.0112 C.ar    1  UNL1        0.0173
      4 C         141.6364  139.2310  158.1463 C.ar    1  UNL1        0.0594
      5 C         142.2847  138.0192  158.7471 C.ar    1  UNL1        0.0130
      6 C         142.6019  137.9872  160.2129 C.ar    1  UNL1        0.0057
      7 C         142.4928  137.0142  157.6530 C.ar    1  UNL1       -0.0091
      8 C         141.9731  137.6051  156.3761 C.ar    1  UNL1        0.0331
      9 N         141.4438  138.9751  156.6809 N.ar    1  UNL1       -0.3289
     10 C         140.8298  139.9229  155.6937 C.3     1  UNL1        0.1301
     11 C         142.0489  136.8194  155.1007 C.3     1  UNL1        0.0435
     12 C         142.6445  135.4426  155.1022 C.3     1  UNL1        0.0066
     13 C         143.1642  134.8518  156.3792 C.3     1  UNL1        0.0049
     14 C         143.0883  135.6376  157.6546 C.3     1  UNL1        0.0275
     15 C         143.7598  133.4750  156.3808 C.3     1  UNL1        0.0053
     16 C         144.5422  132.9977  157.5682 C.3     1  UNL1        0.0322
     17 C         145.1378  131.6210  157.5698 C.3     1  UNL1        0.1422
     18 O         144.9508  130.7216  156.3839 O.3     1  UNL1       -0.3538
     19 C         144.1684  131.1989  155.1965 C.3     1  UNL1        0.1422
     20 C         143.5728  132.5756  155.1949 C.3     1  UNL1        0.0322
     21 N         141.8248  138.2216  163.4563 N.am    1  UNL1       -0.2743
     22 C         142.1419  138.1896  164.9220 C.3     1  UNL1        0.1152
     23 C         142.5879  139.1351  162.5435 C.2     1  UNL1        0.2491
     24 O         143.6681  140.0167  163.0966 O.2     1  UNL1       -0.2699
     25 C         140.7444  137.3400  162.9032 C.3     1  UNL1        0.0943
     26 C         139.3162  137.7974  162.9298 C.3     1  UNL1        0.0311
     27 C         138.6259  138.1759  161.6529 C.3     1  UNL1        0.0889
     28 N         137.6291  140.2979  162.7724 N.am    1  UNL1       -0.1932
     29 C         137.9364  139.5030  161.5380 C.2     1  UNL1        0.2446
     30 O         137.5541  140.0353  160.1887 O.2     1  UNL1       -0.2730
     31 H         137.8800  139.9485  163.6580 H       1  UNL1        0.1825
     32 C         137.7464  142.8890  162.6229 C.3     1  UNL1        0.2055
     33 O         136.9395  141.6251  162.6575 O.3     1  UNL1       -0.2636
@<TRIPOS>BOND
     1    32    33    1
     2    33    28    1
     3    28    29   am
     4    29    30    2
     5    29    27    1
     6    27    26    1
     7    26    25    1
     8    25    21    1
     9    21    22    1
    10    21    23   am
    11    23    24    2
    12    23     1    1
    13     1     2   ar
    14     2     3   ar
    15     3     4   ar
    16     4     5   ar
    17     5     6   ar
    18     5     7   ar
    19     7     8   ar
    20     8     9   ar
    21     9    10    1
    22     8    11    1
    23    11    12    1
    24    12    13    1
    25    13    15    1
    26    15    16    1
    27    16    17    1
    28    17    18    1
    29    18    19    1
    30    19    20    1
    31    13    14    1
    32     6     1   ar
    33    14     7    1
    34     9     4   ar
    35    20    15    1
    36    28    31    1
