@<TRIPOS>MOLECULE
*****
 32 36 0 0 0
SMALL
GASTEIGER

@<TRIPOS>ATOM
      1 N         139.8961  138.3344  163.1013 N.3     1  UNL1       -0.2703
      2 C         139.1582  139.0834  164.1711 C.3     1  UNL1        0.0727
      3 C         139.8387  139.4010  165.4696 C.3     1  UNL1        0.0260
      4 C         141.2569  138.9695  165.6983 C.3     1  UNL1        0.0737
      5 C         141.9948  138.2205  164.6285 C.3     1  UNL1        0.0260
      6 C         141.3144  137.9030  163.3300 C.3     1  UNL1        0.0727
      7 C         142.6640  138.6047  166.0687 C.3     1  UNL1        0.0306
      8 C         142.9265  139.1174  167.4538 C.3     1  UNL1        0.0992
      9 N         141.6816  139.7990  167.9395 N.am    1  UNL1       -0.2516
     10 C         140.6498  139.7076  166.8545 C.2     1  UNL1        0.2289
     11 O         139.2556  140.2576  166.9151 O.2     1  UNL1       -0.2745
     12 C         141.5003  140.4564  169.2754 C.ar    1  UNL1        0.1141
     13 S         140.5113  140.0543  170.3290 S.2     1  UNL1        0.0292
     14 N         140.6760  140.9809  171.4971 N.ar    1  UNL1       -0.2055
     15 C         141.7668  141.9556  171.1654 C.ar    1  UNL1        0.1205
     16 C         142.2763  141.6314  169.7923 C.ar    1  UNL1        0.0986
     17 CL        143.3697  142.3553  169.0639 Cl      1  UNL1       -0.0787
     18 C         139.2157  138.0169  161.8027 C.3     1  UNL1        0.1063
     19 C         139.3597  138.9457  160.6338 C.3     1  UNL1        0.1483
     20 O         139.4383  138.3927  159.2417 O.3     1  UNL1       -0.3786
     21 H         139.5290  139.1221  158.6087 H       1  UNL1        0.2108
     22 C         142.0118  140.3479  160.6282 C.3     1  UNL1        0.0306
     23 C         140.7511  141.1287  160.8541 C.ar    1  UNL1       -0.0238
     24 C         139.4250  140.4276  160.8569 C.ar    1  UNL1        0.0015
     25 C         138.1643  141.2084  161.0828 C.ar    1  UNL1       -0.0020
     26 C         138.2297  142.6902  161.3060 C.ar    1  UNL1        0.0060
     27 C         139.5557  143.3913  161.3032 C.ar    1  UNL1        0.0748
     28 C         140.8164  142.6105  161.0773 C.ar    1  UNL1        0.0233
     29 C         141.9700  143.5680  161.1285 C.3     1  UNL1        0.2352
     30 O         141.4223  144.9404  161.3860 O.3     1  UNL1       -0.4404
     31 C         139.9301  144.8312  161.4940 C.2     1  UNL1        0.3413
     32 O         138.9793  145.9632  161.7481 O.2     1  UNL1       -0.2449
@<TRIPOS>BOND
     1    22    23    1
     2    23    24   ar
     3    24    19    1
     4    19    20    1
     5    19    18    1
     6    18     1    1
     7     1     2    1
     8     2     3    1
     9     3     4    1
    10     4     5    1
    11     5     6    1
    12     4     7    1
    13     7     8    1
    14     8     9    1
    15     9    12    1
    16    12    13   ar
    17    13    14   ar
    18    14    15   ar
    19    15    16   ar
    20    16    17    1
    21     9    10   am
    22    10    11    2
    23    24    25   ar
    24    25    26   ar
    25    26    27   ar
    26    27    28   ar
    27    28    29    1
    28    29    30    1
    29    30    31    1
    30    31    32    2
    31    28    23   ar
    32     6     1    1
    33    16    12   ar
    34    31    27    1
    35    10     4    1
    36    20    21    1
@<TRIPOS>MOLECULE
*****
 32 36 0 0 0
SMALL
GASTEIGER

@<TRIPOS>ATOM
      1 N         139.7047  138.5871  163.3088 N.3     1  UNL1       -0.2703
      2 C         138.9985  139.2774  164.4378 C.3     1  UNL1        0.0727
      3 C         139.7264  139.5553  165.7195 C.3     1  UNL1        0.0260
      4 C         141.1604  139.1428  165.8723 C.3     1  UNL1        0.0737
      5 C         141.8666  138.4525  164.7433 C.3     1  UNL1        0.0260
      6 C         141.1388  138.1746  163.4615 C.3     1  UNL1        0.0727
      7 C         142.5880  138.7910  166.1697 C.3     1  UNL1        0.0306
      8 C         142.8984  139.2521  167.5630 C.3     1  UNL1        0.0992
      9 N         141.6626  139.8888  168.1267 N.am    1  UNL1       -0.2516
     10 C         140.5886  139.8213  167.0818 C.2     1  UNL1        0.2289
     11 O         139.1885  140.3409  167.2217 O.2     1  UNL1       -0.2745
     12 C         141.5252  140.4878  169.4949 C.ar    1  UNL1        0.1141
     13 S         140.4970  140.1148  170.5214 S.2     1  UNL1        0.0292
     14 N         140.7281  140.9615  171.7379 N.ar    1  UNL1       -0.2055
     15 C         141.8991  141.8578  171.4632 C.ar    1  UNL1        0.1205
     16 C         142.3917  141.5650  170.0769 C.ar    1  UNL1        0.0986
     17 CL        143.5478  142.2323  169.3928 Cl      1  UNL1       -0.0787
     18 C         138.9768  138.3092  162.0269 C.3     1  UNL1        0.1063
     19 C         138.1830  139.3959  161.3644 C.3     1  UNL1        0.1483
     20 O         136.7736  139.1328  160.9236 O.3     1  UNL1       -0.3786
     21 H         136.4070  139.9337  160.5174 H       1  UNL1        0.2108
     22 C         137.3498  141.7222  163.0656 C.3     1  UNL1        0.0306
     23 C         138.3820  141.9089  161.9933 C.ar    1  UNL1       -0.0238
     24 C         138.7986  140.7457  161.1428 C.ar    1  UNL1        0.0015
     25 C         139.8308  140.9324  160.0705 C.ar    1  UNL1       -0.0020
     26 C         140.4463  142.2821  159.8488 C.ar    1  UNL1        0.0060
     27 C         140.0297  143.4452  160.6994 C.ar    1  UNL1        0.0748
     28 C         138.9975  143.2586  161.7716 C.ar    1  UNL1        0.0233
     29 C         138.7878  144.5808  162.4483 C.3     1  UNL1        0.2352
     30 O         139.6904  145.5846  161.7943 O.3     1  UNL1       -0.4404
     31 C         140.4579  144.8828  160.7134 C.2     1  UNL1        0.3413
     32 O         141.4751  145.5086  159.8057 O.2     1  UNL1       -0.2449
@<TRIPOS>BOND
     1    22    23    1
     2    23    24   ar
     3    24    19    1
     4    19    20    1
     5    19    18    1
     6    18     1    1
     7     1     2    1
     8     2     3    1
     9     3     4    1
    10     4     5    1
    11     5     6    1
    12     4     7    1
    13     7     8    1
    14     8     9    1
    15     9    12    1
    16    12    13   ar
    17    13    14   ar
    18    14    15   ar
    19    15    16   ar
    20    16    17    1
    21     9    10   am
    22    10    11    2
    23    24    25   ar
    24    25    26   ar
    25    26    27   ar
    26    27    28   ar
    27    28    29    1
    28    29    30    1
    29    30    31    1
    30    31    32    2
    31    28    23   ar
    32     6     1    1
    33    16    12   ar
    34    31    27    1
    35    10     4    1
    36    20    21    1
@<TRIPOS>MOLECULE
*****
 32 36 0 0 0
SMALL
GASTEIGER

@<TRIPOS>ATOM
      1 N         139.9034  137.8292  164.0338 N.3     1  UNL1       -0.2703
      2 C         139.4179  137.9355  162.6186 C.3     1  UNL1        0.0727
      3 C         140.3959  138.1706  161.5058 C.3     1  UNL1        0.0260
      4 C         141.8594  138.2993  161.8083 C.3     1  UNL1        0.0737
      5 C         142.3450  138.1930  163.2235 C.3     1  UNL1        0.0260
      6 C         141.3670  137.9579  164.3363 C.3     1  UNL1        0.0727
      7 C         143.3447  138.4479  161.9566 C.3     1  UNL1        0.0306
      8 C         143.9271  138.6676  160.5917 C.3     1  UNL1        0.0992
      9 N         142.8018  138.6547  159.6000 N.am    1  UNL1       -0.2516
     10 C         141.5239  138.4271  160.3518 C.2     1  UNL1        0.2289
     11 O         140.1515  138.3422  159.7526 O.2     1  UNL1       -0.2745
     12 C         142.9315  138.8373  158.1169 C.ar    1  UNL1        0.1141
     13 S         143.0686  140.1468  157.3984 S.2     1  UNL1        0.0292
     14 N         143.1688  139.8613  155.9293 N.ar    1  UNL1       -0.2055
     15 C         143.0936  138.3752  155.7396 C.ar    1  UNL1        0.1205
     16 C         142.9470  137.7424  157.0917 C.ar    1  UNL1        0.0986
     17 CL        142.8354  136.2726  157.3698 Cl      1  UNL1       -0.0787
     18 C         138.9254  137.5941  165.1466 C.3     1  UNL1        0.1063
     19 C         138.1907  138.7510  165.7562 C.3     1  UNL1        0.1483
     20 O         137.3369  138.5408  166.9715 O.3     1  UNL1       -0.3786
     21 H         136.9361  139.3839  167.2348 H       1  UNL1        0.2108
     22 C         140.0803  140.7573  166.9412 C.3     1  UNL1        0.0306
     23 C         139.2544  141.1213  165.7430 C.ar    1  UNL1       -0.0238
     24 C         138.3096  140.1181  165.1505 C.ar    1  UNL1        0.0015
     25 C         137.4838  140.4821  163.9524 C.ar    1  UNL1       -0.0020
     26 C         137.6027  141.8492  163.3468 C.ar    1  UNL1        0.0060
     27 C         138.5475  142.8523  163.9392 C.ar    1  UNL1        0.0748
     28 C         139.3734  142.4883  165.1374 C.ar    1  UNL1        0.0233
     29 C         140.2126  143.6774  165.5003 C.3     1  UNL1        0.2352
     30 O         139.9055  144.7762  164.5266 O.3     1  UNL1       -0.4404
     31 C         138.8764  144.2663  163.5618 C.2     1  UNL1        0.3413
     32 O         138.2808  145.0353  162.4199 O.2     1  UNL1       -0.2449
@<TRIPOS>BOND
     1    22    23    1
     2    23    24   ar
     3    24    19    1
     4    19    20    1
     5    19    18    1
     6    18     1    1
     7     1     2    1
     8     2     3    1
     9     3     4    1
    10     4     5    1
    11     5     6    1
    12     4     7    1
    13     7     8    1
    14     8     9    1
    15     9    12    1
    16    12    13   ar
    17    13    14   ar
    18    14    15   ar
    19    15    16   ar
    20    16    17    1
    21     9    10   am
    22    10    11    2
    23    24    25   ar
    24    25    26   ar
    25    26    27   ar
    26    27    28   ar
    27    28    29    1
    28    29    30    1
    29    30    31    1
    30    31    32    2
    31    28    23   ar
    32     6     1    1
    33    16    12   ar
    34    31    27    1
    35    10     4    1
    36    20    21    1
@<TRIPOS>MOLECULE
*****
 32 36 0 0 0
SMALL
GASTEIGER

@<TRIPOS>ATOM
      1 N         138.6409  141.2111  163.9941 N.3     1  UNL1       -0.2703
      2 C         139.1340  140.9301  162.6056 C.3     1  UNL1        0.0727
      3 C         139.5484  142.0625  161.7134 C.3     1  UNL1        0.0260
      4 C         139.4698  143.4758  162.2097 C.3     1  UNL1        0.0737
      5 C         138.9768  143.7568  163.5982 C.3     1  UNL1        0.0260
      6 C         138.5623  142.6245  164.4903 C.3     1  UNL1        0.0727
      7 C         139.4464  144.9328  162.5657 C.3     1  UNL1        0.0306
      8 C         139.9427  145.7075  161.3808 C.3     1  UNL1        0.0992
      9 N         140.2727  144.7292  160.2926 N.am    1  UNL1       -0.2516
     10 C         139.9805  143.3500  160.8049 C.2     1  UNL1        0.2289
     11 O         140.1663  142.0697  160.0457 O.2     1  UNL1       -0.2745
     12 C         140.8021  145.0702  158.9313 C.ar    1  UNL1        0.1141
     13 S         140.1709  146.0138  157.9508 S.2     1  UNL1        0.0292
     14 N         141.0342  146.0544  156.7249 N.ar    1  UNL1       -0.2055
     15 C         142.1990  145.1358  156.9475 C.ar    1  UNL1        0.1205
     16 C         142.0555  144.5276  158.3112 C.ar    1  UNL1        0.0986
     17 CL        142.9996  143.5486  158.9438 Cl      1  UNL1       -0.0787
     18 C         138.2264  140.0788  164.8863 C.3     1  UNL1        0.1063
     19 C         139.2384  139.4100  165.7686 C.3     1  UNL1        0.1483
     20 O         139.8547  138.1081  165.3498 O.3     1  UNL1       -0.3786
     21 H         140.4831  137.8149  166.0281 H       1  UNL1        0.2108
     22 C         141.6480  141.1925  165.8978 C.3     1  UNL1        0.0306
     23 C         140.8389  140.9342  167.1342 C.ar    1  UNL1       -0.0238
     24 C         139.6342  140.0430  167.0696 C.ar    1  UNL1        0.0015
     25 C         138.8251  139.7847  168.3061 C.ar    1  UNL1       -0.0020
     26 C         139.2208  140.4177  169.6071 C.ar    1  UNL1        0.0060
     27 C         140.4256  141.3090  169.6717 C.ar    1  UNL1        0.0748
     28 C         141.2346  141.5672  168.4353 C.ar    1  UNL1        0.0233
     29 C         142.3634  142.4840  168.8031 C.3     1  UNL1        0.2352
     30 O         142.2521  142.7923  170.2668 O.3     1  UNL1       -0.4404
     31 C         141.0544  142.0661  170.8036 C.2     1  UNL1        0.3413
     32 O         140.5705  142.0924  172.2232 O.2     1  UNL1       -0.2449
@<TRIPOS>BOND
     1    22    23    1
     2    23    24   ar
     3    24    19    1
     4    19    20    1
     5    19    18    1
     6    18     1    1
     7     1     2    1
     8     2     3    1
     9     3     4    1
    10     4     5    1
    11     5     6    1
    12     4     7    1
    13     7     8    1
    14     8     9    1
    15     9    12    1
    16    12    13   ar
    17    13    14   ar
    18    14    15   ar
    19    15    16   ar
    20    16    17    1
    21     9    10   am
    22    10    11    2
    23    24    25   ar
    24    25    26   ar
    25    26    27   ar
    26    27    28   ar
    27    28    29    1
    28    29    30    1
    29    30    31    1
    30    31    32    2
    31    28    23   ar
    32     6     1    1
    33    16    12   ar
    34    31    27    1
    35    10     4    1
    36    20    21    1
@<TRIPOS>MOLECULE
*****
 32 36 0 0 0
SMALL
GASTEIGER

@<TRIPOS>ATOM
      1 N         141.8752  138.2021  163.3455 N.3     1  UNL1       -0.2703
      2 C         142.6554  138.8499  164.4508 C.3     1  UNL1        0.0727
      3 C         141.9555  139.3006  165.6985 C.3     1  UNL1        0.0260
      4 C         140.4753  139.1036  165.8410 C.3     1  UNL1        0.0737
      5 C         139.6951  138.4559  164.7357 C.3     1  UNL1        0.0260
      6 C         140.3950  138.0052  163.4880 C.3     1  UNL1        0.0727
      7 C         139.0081  138.9740  166.1247 C.3     1  UNL1        0.0306
      8 C         138.7457  139.5534  167.4833 C.3     1  UNL1        0.0992
      9 N         140.0508  140.0411  168.0391 N.am    1  UNL1       -0.2516
     10 C         141.1197  139.7631  167.0242 C.2     1  UNL1        0.2289
     11 O         142.5772  140.0876  167.1672 O.2     1  UNL1       -0.2745
     12 C         140.2517  140.6924  169.3753 C.ar    1  UNL1        0.1141
     13 S         140.3504  139.9857  170.6946 S.2     1  UNL1        0.0292
     14 N         140.5488  141.0213  171.7615 N.ar    1  UNL1       -0.2055
     15 C         140.5727  142.3681  171.1015 C.ar    1  UNL1        0.1205
     16 C         140.3891  142.1647  169.6267 C.ar    1  UNL1        0.0986
     17 CL        140.3497  143.2443  168.5860 Cl      1  UNL1       -0.0787
     18 C         142.5751  137.7514  162.0977 C.3     1  UNL1        0.1063
     19 C         143.2397  138.7574  161.2054 C.3     1  UNL1        0.1483
     20 O         144.5384  138.4223  160.5340 O.3     1  UNL1       -0.3786
     21 H         144.8291  139.1763  159.9974 H       1  UNL1        0.2108
     22 C         144.4962  141.2208  162.3686 C.3     1  UNL1        0.0306
     23 C         143.2337  141.3304  161.5661 C.ar    1  UNL1       -0.0238
     24 C         142.6054  140.0987  160.9845 C.ar    1  UNL1        0.0015
     25 C         141.3429  140.2083  160.1820 C.ar    1  UNL1       -0.0020
     26 C         140.7086  141.5495  159.9611 C.ar    1  UNL1        0.0060
     27 C         141.3369  142.7811  160.5427 C.ar    1  UNL1        0.0748
     28 C         142.5994  142.6716  161.3452 C.ar    1  UNL1        0.0233
     29 C         142.9863  144.0505  161.7912 C.3     1  UNL1        0.2352
     30 O         141.9629  145.0123  161.2644 O.3     1  UNL1       -0.4404
     31 C         140.9435  144.2278  160.4928 C.2     1  UNL1        0.3413
     32 O         139.7417  144.7910  159.7939 O.2     1  UNL1       -0.2449
@<TRIPOS>BOND
     1    22    23    1
     2    23    24   ar
     3    24    19    1
     4    19    20    1
     5    19    18    1
     6    18     1    1
     7     1     2    1
     8     2     3    1
     9     3     4    1
    10     4     5    1
    11     5     6    1
    12     4     7    1
    13     7     8    1
    14     8     9    1
    15     9    12    1
    16    12    13   ar
    17    13    14   ar
    18    14    15   ar
    19    15    16   ar
    20    16    17    1
    21     9    10   am
    22    10    11    2
    23    24    25   ar
    24    25    26   ar
    25    26    27   ar
    26    27    28   ar
    27    28    29    1
    28    29    30    1
    29    30    31    1
    30    31    32    2
    31    28    23   ar
    32     6     1    1
    33    16    12   ar
    34    31    27    1
    35    10     4    1
    36    20    21    1
@<TRIPOS>MOLECULE
*****
 32 36 0 0 0
SMALL
GASTEIGER

@<TRIPOS>ATOM
      1 N         138.4697  139.2705  164.6878 N.3     1  UNL1       -0.2703
      2 C         138.0073  140.5286  164.0144 C.3     1  UNL1        0.0727
      3 C         138.0833  140.6515  162.5214 C.3     1  UNL1        0.0260
      4 C         138.6216  139.5163  161.7018 C.3     1  UNL1        0.0737
      5 C         139.0839  138.2583  162.3752 C.3     1  UNL1        0.0260
      6 C         139.0079  138.1354  163.8682 C.3     1  UNL1        0.0727
      7 C         139.1336  138.4707  160.7560 C.3     1  UNL1        0.0306
      8 C         139.0273  139.0146  159.3620 C.3     1  UNL1        0.0992
      9 N         138.4496  140.3964  159.4464 N.am    1  UNL1       -0.2516
     10 C         138.1988  140.7064  160.8924 C.2     1  UNL1        0.2289
     11 O         137.6260  141.9825  161.4340 O.2     1  UNL1       -0.2745
     12 C         138.1715  141.3079  158.2882 C.ar    1  UNL1        0.1141
     13 S         137.2567  141.0155  157.1359 S.2     1  UNL1        0.0292
     14 N         137.2792  142.1988  156.2144 N.ar    1  UNL1       -0.2055
     15 C         138.2078  143.2227  156.7970 C.ar    1  UNL1        0.1205
     16 C         138.7592  142.6720  158.0788 C.ar    1  UNL1        0.0986
     17 CL        139.7283  143.3639  158.9909 Cl      1  UNL1       -0.0787
     18 C         138.3937  139.1476  166.1809 C.3     1  UNL1        0.1063
     19 C         139.5224  139.6476  167.0329 C.3     1  UNL1        0.1483
     20 O         139.3615  139.7225  168.5224 O.3     1  UNL1       -0.3786
     21 H         140.1780  140.0643  168.9190 H       1  UNL1        0.2108
     22 C         139.9983  142.5403  166.3955 C.3     1  UNL1        0.0306
     23 C         141.0499  141.5192  166.0768 C.ar    1  UNL1       -0.0238
     24 C         140.8119  140.0729  166.3956 C.ar    1  UNL1        0.0015
     25 C         141.8635  139.0518  166.0769 C.ar    1  UNL1       -0.0020
     26 C         143.1531  139.4770  165.4396 C.ar    1  UNL1        0.0060
     27 C         143.3910  140.9233  165.1209 C.ar    1  UNL1        0.0748
     28 C         142.3394  141.9444  165.4395 C.ar    1  UNL1        0.0233
     29 C         142.8532  143.2876  165.0130 C.3     1  UNL1        0.2352
     30 O         144.2223  143.0966  164.4307 O.3     1  UNL1       -0.4404
     31 C         144.5547  141.6355  164.4974 C.2     1  UNL1        0.3413
     32 O         145.8274  140.9982  164.0238 O.2     1  UNL1       -0.2449
@<TRIPOS>BOND
     1    22    23    1
     2    23    24   ar
     3    24    19    1
     4    19    20    1
     5    19    18    1
     6    18     1    1
     7     1     2    1
     8     2     3    1
     9     3     4    1
    10     4     5    1
    11     5     6    1
    12     4     7    1
    13     7     8    1
    14     8     9    1
    15     9    12    1
    16    12    13   ar
    17    13    14   ar
    18    14    15   ar
    19    15    16   ar
    20    16    17    1
    21     9    10   am
    22    10    11    2
    23    24    25   ar
    24    25    26   ar
    25    26    27   ar
    26    27    28   ar
    27    28    29    1
    28    29    30    1
    29    30    31    1
    30    31    32    2
    31    28    23   ar
    32     6     1    1
    33    16    12   ar
    34    31    27    1
    35    10     4    1
    36    20    21    1
@<TRIPOS>MOLECULE
*****
 32 36 0 0 0
SMALL
GASTEIGER

@<TRIPOS>ATOM
      1 N         144.9714  141.5068  163.2198 N.3     1  UNL1       -0.2703
      2 C         144.6726  141.8693  161.7953 C.3     1  UNL1        0.0727
      3 C         144.0658  140.8527  160.8743 C.3     1  UNL1        0.0260
      4 C         143.7579  139.4737  161.3777 C.3     1  UNL1        0.0737
      5 C         144.0567  139.1112  162.8022 C.3     1  UNL1        0.0260
      6 C         144.6635  140.1278  163.7233 C.3     1  UNL1        0.0727
      7 C         143.3970  138.0627  161.7368 C.3     1  UNL1        0.0306
      8 C         142.8215  137.4065  160.5168 C.3     1  UNL1        0.0992
      9 N         142.8268  138.4121  159.4036 N.am    1  UNL1       -0.2516
     10 C         143.4055  139.6896  159.9357 C.2     1  UNL1        0.2289
     11 O         143.5980  140.9599  159.1618 O.2     1  UNL1       -0.2745
     12 C         142.3390  138.1806  158.0043 C.ar    1  UNL1        0.1141
     13 S         142.8375  137.1275  157.0596 S.2     1  UNL1        0.0292
     14 N         142.0737  137.2577  155.7753 N.ar    1  UNL1       -0.2055
     15 C         141.1030  138.3913  155.9260 C.ar    1  UNL1        0.1205
     16 C         141.2671  138.9617  157.3037 C.ar    1  UNL1        0.0986
     17 CL        140.4947  140.1114  157.8796 Cl      1  UNL1       -0.0787
     18 C         145.5782  142.5234  164.1410 C.3     1  UNL1        0.1063
     19 C         144.6936  143.4296  164.9449 C.3     1  UNL1        0.1483
     20 O         145.2143  144.0666  166.1991 O.3     1  UNL1       -0.3786
     21 H         144.5205  144.6177  166.5939 H       1  UNL1        0.2108
     22 C         142.4142  141.8876  166.1391 C.3     1  UNL1        0.0306
     23 C         142.1487  142.9279  165.0916 C.ar    1  UNL1       -0.0238
     24 C         143.2883  143.6989  164.4945 C.ar    1  UNL1        0.0015
     25 C         143.0228  144.7392  163.4470 C.ar    1  UNL1       -0.0020
     26 C         141.6177  145.0085  162.9966 C.ar    1  UNL1        0.0060
     27 C         140.4780  144.2375  163.5937 C.ar    1  UNL1        0.0748
     28 C         140.7435  143.1972  164.6412 C.ar    1  UNL1        0.0233
     29 C         139.4281  142.6002  165.0455 C.3     1  UNL1        0.2352
     30 O         138.3496  143.2716  164.2479 O.3     1  UNL1       -0.4404
     31 C         138.9985  144.2835  163.3507 C.2     1  UNL1        0.3413
     32 O         138.2920  145.1834  162.3806 O.2     1  UNL1       -0.2449
@<TRIPOS>BOND
     1    22    23    1
     2    23    24   ar
     3    24    19    1
     4    19    20    1
     5    19    18    1
     6    18     1    1
     7     1     2    1
     8     2     3    1
     9     3     4    1
    10     4     5    1
    11     5     6    1
    12     4     7    1
    13     7     8    1
    14     8     9    1
    15     9    12    1
    16    12    13   ar
    17    13    14   ar
    18    14    15   ar
    19    15    16   ar
    20    16    17    1
    21     9    10   am
    22    10    11    2
    23    24    25   ar
    24    25    26   ar
    25    26    27   ar
    26    27    28   ar
    27    28    29    1
    28    29    30    1
    29    30    31    1
    30    31    32    2
    31    28    23   ar
    32     6     1    1
    33    16    12   ar
    34    31    27    1
    35    10     4    1
    36    20    21    1
@<TRIPOS>MOLECULE
*****
 32 36 0 0 0
SMALL
GASTEIGER

@<TRIPOS>ATOM
      1 N         140.3123  138.3421  163.1806 N.3     1  UNL1       -0.2703
      2 C         141.3583  138.9572  164.0624 C.3     1  UNL1        0.0727
      3 C         141.0158  139.3534  165.4680 C.3     1  UNL1        0.0260
      4 C         139.6274  139.1345  165.9917 C.3     1  UNL1        0.0737
      5 C         138.5814  138.5194  165.1099 C.3     1  UNL1        0.0260
      6 C         138.9239  138.1232  163.7044 C.3     1  UNL1        0.0727
      7 C         138.2890  138.9779  166.6507 C.3     1  UNL1        0.0306
      8 C         138.3976  139.5035  168.0515 C.3     1  UNL1        0.0992
      9 N         139.8032  139.9850  168.2582 N.am    1  UNL1       -0.2516
     10 C         140.5632  139.7569  166.9853 C.2     1  UNL1        0.2289
     11 O         142.0057  140.0924  166.7474 O.2     1  UNL1       -0.2745
     12 C         140.3522  140.5885  169.5168 C.ar    1  UNL1        0.1141
     13 S         139.8121  141.7958  170.2242 S.2     1  UNL1        0.0292
     14 N         140.6639  142.0442  171.4336 N.ar    1  UNL1       -0.2055
     15 C         141.7305  140.9903  171.4738 C.ar    1  UNL1        0.1205
     16 C         141.5379  140.0906  170.2890 C.ar    1  UNL1        0.0986
     17 CL        142.3826  138.9018  169.9381 Cl      1  UNL1       -0.0787
     18 C         140.6548  137.9459  161.7749 C.3     1  UNL1        0.1063
     19 C         140.8967  139.0006  160.7362 C.3     1  UNL1        0.1483
     20 O         140.5759  138.7238  159.2973 O.3     1  UNL1       -0.3786
     21 H         140.7900  139.5041  158.7624 H       1  UNL1        0.2108
     22 C         139.0517  141.2791  161.3721 C.3     1  UNL1        0.0306
     23 C         140.5370  141.4715  161.4543 C.ar    1  UNL1       -0.0238
     24 C         141.4595  140.3322  161.1364 C.ar    1  UNL1        0.0015
     25 C         142.9449  140.5246  161.2186 C.ar    1  UNL1       -0.0020
     26 C         143.5077  141.8561  161.6187 C.ar    1  UNL1        0.0060
     27 C         142.5852  142.9953  161.9366 C.ar    1  UNL1        0.0748
     28 C         141.0998  142.8030  161.8544 C.ar    1  UNL1        0.0233
     29 C         140.4434  144.1003  162.2233 C.3     1  UNL1        0.2352
     30 O         141.5229  145.0944  162.5335 O.3     1  UNL1       -0.4404
     31 C         142.8467  144.4115  162.3563 C.2     1  UNL1        0.3413
     32 O         144.1952  145.0352  162.5626 O.2     1  UNL1       -0.2449
@<TRIPOS>BOND
     1    22    23    1
     2    23    24   ar
     3    24    19    1
     4    19    20    1
     5    19    18    1
     6    18     1    1
     7     1     2    1
     8     2     3    1
     9     3     4    1
    10     4     5    1
    11     5     6    1
    12     4     7    1
    13     7     8    1
    14     8     9    1
    15     9    12    1
    16    12    13   ar
    17    13    14   ar
    18    14    15   ar
    19    15    16   ar
    20    16    17    1
    21     9    10   am
    22    10    11    2
    23    24    25   ar
    24    25    26   ar
    25    26    27   ar
    26    27    28   ar
    27    28    29    1
    28    29    30    1
    29    30    31    1
    30    31    32    2
    31    28    23   ar
    32     6     1    1
    33    16    12   ar
    34    31    27    1
    35    10     4    1
    36    20    21    1
@<TRIPOS>MOLECULE
*****
 32 36 0 0 0
SMALL
GASTEIGER

@<TRIPOS>ATOM
      1 N         139.8661  138.3528  163.1425 N.3     1  UNL1       -0.2703
      2 C         139.1439  139.1174  164.2119 C.3     1  UNL1        0.0727
      3 C         139.8334  139.4279  165.5074 C.3     1  UNL1        0.0260
      4 C         141.2451  138.9739  165.7333 C.3     1  UNL1        0.0737
      5 C         141.9673  138.2094  164.6638 C.3     1  UNL1        0.0260
      6 C         141.2778  137.8989  163.3684 C.3     1  UNL1        0.0727
      7 C         142.6471  138.5873  166.1007 C.3     1  UNL1        0.0306
      8 C         142.9221  139.1001  167.4833 C.3     1  UNL1        0.0992
      9 N         141.6900  139.8036  167.9704 N.am    1  UNL1       -0.2516
     10 C         140.6536  139.7257  166.8888 C.2     1  UNL1        0.2289
     11 O         139.2689  140.2987  166.9517 O.2     1  UNL1       -0.2745
     12 C         141.5236  140.4684  169.3046 C.ar    1  UNL1        0.1141
     13 S         140.5292  140.0881  170.3612 S.2     1  UNL1        0.0292
     14 N         140.7134  141.0148  171.5262 N.ar    1  UNL1       -0.2055
     15 C         141.8218  141.9679  171.1897 C.ar    1  UNL1        0.1205
     16 C         142.3225  141.6301  169.8166 C.ar    1  UNL1        0.0986
     17 CL        143.4281  142.3310  169.0842 Cl      1  UNL1       -0.0787
     18 C         139.1767  138.0423  161.8469 C.3     1  UNL1        0.1063
     19 C         139.2971  138.9868  160.6880 C.3     1  UNL1        0.1483
     20 O         138.2272  139.0251  159.6373 O.3     1  UNL1       -0.3786
     21 H         138.4580  139.6849  158.9647 H       1  UNL1        0.2108
     22 C         139.1505  141.7889  161.7495 C.3     1  UNL1        0.0306
     23 C         140.4141  141.2942  161.1104 C.ar    1  UNL1       -0.0238
     24 C         140.4875  139.8932  160.5797 C.ar    1  UNL1        0.0015
     25 C         141.7511  139.3985  159.9406 C.ar    1  UNL1       -0.0020
     26 C         142.9414  140.3047  159.8322 C.ar    1  UNL1        0.0060
     27 C         142.8681  141.7057  160.3630 C.ar    1  UNL1        0.0748
     28 C         141.6044  142.2005  161.0021 C.ar    1  UNL1        0.0233
     29 C         141.8273  143.6203  161.4315 C.3     1  UNL1        0.2352
     30 O         143.2287  144.0031  161.0578 O.3     1  UNL1       -0.4404
     31 C         143.8719  142.8198  160.3974 C.2     1  UNL1        0.3413
     32 O         145.2730  142.7609  159.8650 O.2     1  UNL1       -0.2449
@<TRIPOS>BOND
     1    22    23    1
     2    23    24   ar
     3    24    19    1
     4    19    20    1
     5    19    18    1
     6    18     1    1
     7     1     2    1
     8     2     3    1
     9     3     4    1
    10     4     5    1
    11     5     6    1
    12     4     7    1
    13     7     8    1
    14     8     9    1
    15     9    12    1
    16    12    13   ar
    17    13    14   ar
    18    14    15   ar
    19    15    16   ar
    20    16    17    1
    21     9    10   am
    22    10    11    2
    23    24    25   ar
    24    25    26   ar
    25    26    27   ar
    26    27    28   ar
    27    28    29    1
    28    29    30    1
    29    30    31    1
    30    31    32    2
    31    28    23   ar
    32     6     1    1
    33    16    12   ar
    34    31    27    1
    35    10     4    1
    36    20    21    1
