@<TRIPOS>MOLECULE
*****
 48 52 0 0 0
SMALL
GASTEIGER

@<TRIPOS>ATOM
      1 C         140.1537  145.4711  158.0026 C.ar    1  UNL1        0.3198
      2 N         139.6306  144.1650  157.4825 N.ar    1  UNL1       -0.1927
      3 C         139.9532  142.8884  158.2008 C.ar    1  UNL1        0.1049
      4 C         140.7989  142.9177  159.4393 C.ar    1  UNL1        0.0376
      5 C         141.3220  144.2237  159.9594 C.ar    1  UNL1        0.0853
      6 N         140.9994  145.5004  159.2411 N.ar    1  UNL1       -0.1969
      7 C         141.1215  141.6410  160.1576 C.ar    1  UNL1        0.0367
      8 C         140.4023  141.2922  161.4268 C.ar    1  UNL1        0.0031
      9 C         140.7249  140.0155  162.1452 C.ar    1  UNL1       -0.0001
     10 C         141.7667  139.0877  161.5943 C.ar    1  UNL1        0.0031
     11 C         142.4860  139.4365  160.3250 C.ar    1  UNL1        0.0369
     12 C         142.1634  140.7131  159.6067 C.ar    1  UNL1        0.1387
     13 C         140.0056  139.6668  163.4145 C.ar    1  UNL1       -0.0039
     14 C         138.8919  140.5410  163.9099 C.ar    1  UNL1       -0.0003
     15 C         138.1726  140.1922  165.1792 C.ar    1  UNL1        0.0011
     16 C         138.5671  138.9692  165.9530 C.ar    1  UNL1        0.0137
     17 C         139.6808  138.0950  165.4575 C.ar    1  UNL1       -0.0031
     18 C         140.4000  138.4438  164.1882 C.ar    1  UNL1       -0.0218
     19 C         141.5137  137.5696  163.6927 C.3     1  UNL1        0.0310
     20 C         137.8478  138.6204  167.2222 C.2     1  UNL1        0.0729
     21 O         138.2546  139.2623  168.5155 O.co2   1  UNL1       -0.5446
     22 O         136.7218  137.6297  167.1982 O.co2   1  UNL1       -0.5446
     23 O         142.8827  141.0619  158.3374 O.3     1  UNL1       -0.4714
     24 C         144.1731  141.8247  158.3919 C.3     1  UNL1        0.2525
     25 C         139.3071  146.7061  155.8794 C.3     1  UNL1        0.2559
     26 O         139.8311  146.7478  157.2843 O.3     1  UNL1       -0.4426
     27 C         142.1677  144.2532  161.1980 C.3     1  UNL1        0.1428
     28 N         141.5357  144.0479  162.5427 N.am    1  UNL1       -0.2380
     29 C         140.3060  144.7384  163.0537 C.2     1  UNL1        0.4055
     30 O         139.4924  145.7554  162.3095 O.2     1  UNL1       -0.2262
     31 O         140.0328  144.2333  164.4394 O.3     1  UNL1       -0.4320
     32 C         141.0936  143.2307  164.7849 C.3     1  UNL1        0.2107
     33 C         142.0225  143.1161  163.6127 C.3     1  UNL1        0.1233
     34 C         143.2267  142.2259  163.5258 C.3     1  UNL1        0.0258
     35 C         141.2058  142.4753  166.0760 C.ar    1  UNL1        0.0189
     36 C         140.5496  143.0070  167.3155 C.ar    1  UNL1        0.0031
     37 C         140.6618  142.2516  168.6065 C.ar    1  UNL1        0.0712
     38 C         141.4303  140.9645  168.6580 C.ar    1  UNL1        0.0077
     39 C         142.0866  140.4327  167.4185 C.ar    1  UNL1        0.0712
     40 C         141.9744  141.1881  166.1274 C.ar    1  UNL1        0.0031
     41 C         140.0055  142.7833  169.8461 C.3     1  UNL1        0.4186
     42 F         139.3492  143.3152  171.0857 F       1  UNL1       -0.1659
     43 F         139.3733  141.4444  170.0858 F       1  UNL1       -0.1659
     44 F         140.6377  144.1223  169.6064 F       1  UNL1       -0.1659
     45 C         142.8551  139.1456  167.4699 C.3     1  UNL1        0.4186
     46 F         143.6237  137.8584  167.5214 F       1  UNL1       -0.1659
     47 F         143.2061  139.2971  166.0194 F       1  UNL1       -0.1659
     48 F         142.5042  138.9940  168.9204 F       1  UNL1       -0.1659
@<TRIPOS>UNITY_ATOM_ATTR
21 1
charge -1
@<TRIPOS>BOND
     1    25    26    1
     2    26     1    1
     3     1     2   ar
     4     2     3   ar
     5     3     4   ar
     6     4     7    1
     7     7     8   ar
     8     8     9   ar
     9     9    13    1
    10    13    14   ar
    11    14    15   ar
    12    15    16   ar
    13    16    20    1
    14    20    21   ar
    15    20    22   ar
    16    16    17   ar
    17    17    18   ar
    18    18    19    1
    19     9    10   ar
    20    10    11   ar
    21    11    12   ar
    22    12    23    1
    23    23    24    1
    24     4     5   ar
    25     5    27    1
    26    27    28    1
    27    28    29   am
    28    29    30    2
    29    29    31    1
    30    31    32    1
    31    32    35    1
    32    35    36   ar
    33    36    37   ar
    34    37    41    1
    35    41    42    1
    36    41    43    1
    37    41    44    1
    38    37    38   ar
    39    38    39   ar
    40    39    45    1
    41    45    46    1
    42    45    47    1
    43    45    48    1
    44    39    40   ar
    45    32    33    1
    46    33    34    1
    47     5     6   ar
    48     6     1   ar
    49    12     7   ar
    50    33    28    1
    51    18    13   ar
    52    40    35   ar
@<TRIPOS>MOLECULE
*****
 48 52 0 0 0
SMALL
GASTEIGER

@<TRIPOS>ATOM
      1 C         140.1171  145.4820  157.9249 C.ar    1  UNL1        0.3198
      2 N         139.5052  144.2113  157.4143 N.ar    1  UNL1       -0.1927
      3 C         139.7900  142.9110  158.1059 C.ar    1  UNL1        0.1049
      4 C         140.6867  142.8815  159.3079 C.ar    1  UNL1        0.0376
      5 C         141.2986  144.1523  159.8185 C.ar    1  UNL1        0.0853
      6 N         141.0138  145.4526  159.1269 N.ar    1  UNL1       -0.1969
      7 C         140.9715  141.5813  159.9995 C.ar    1  UNL1        0.0367
      8 C         140.2954  141.2591  161.2991 C.ar    1  UNL1        0.0031
      9 C         140.5802  139.9589  161.9906 C.ar    1  UNL1       -0.0001
     10 C         141.5412  138.9808  161.3825 C.ar    1  UNL1        0.0031
     11 C         142.2173  139.3029  160.0829 C.ar    1  UNL1        0.0369
     12 C         141.9325  140.6032  159.3914 C.ar    1  UNL1        0.1387
     13 C         139.9040  139.6368  163.2903 C.ar    1  UNL1       -0.0039
     14 C         138.8334  140.5422  163.8233 C.ar    1  UNL1       -0.0003
     15 C         138.1572  140.2200  165.1230 C.ar    1  UNL1        0.0011
     16 C         138.5516  138.9925  165.8895 C.ar    1  UNL1        0.0137
     17 C         139.6222  138.0871  165.3564 C.ar    1  UNL1       -0.0031
     18 C         140.2984  138.4092  164.0568 C.ar    1  UNL1       -0.0218
     19 C         141.3690  137.5038  163.5237 C.3     1  UNL1        0.0310
     20 C         137.8755  138.6704  167.1891 C.2     1  UNL1        0.0729
     21 O         138.3398  139.3221  168.4579 O.co2   1  UNL1       -0.5446
     22 O         136.7350  137.6966  167.2200 O.co2   1  UNL1       -0.5446
     23 O         142.6087  140.9253  158.0917 O.3     1  UNL1       -0.4714
     24 C         143.8388  140.1724  157.6795 C.3     1  UNL1        0.2525
     25 C         139.0348  146.7972  155.9630 C.3     1  UNL1        0.2559
     26 O         139.8322  146.7823  157.2333 O.3     1  UNL1       -0.4426
     27 C         142.1953  144.1229  161.0206 C.3     1  UNL1        0.1428
     28 N         141.6104  143.9283  162.3880 N.am    1  UNL1       -0.2380
     29 C         140.4470  144.6795  162.9644 C.2     1  UNL1        0.4055
     30 O         139.6643  145.7572  162.2745 O.2     1  UNL1       -0.2262
     31 O         140.2037  144.1638  164.3518 O.3     1  UNL1       -0.4320
     32 C         141.2168  143.0938  164.6329 C.3     1  UNL1        0.2107
     33 C         142.0861  142.9483  163.4192 C.3     1  UNL1        0.1233
     34 C         143.2303  141.9909  163.2640 C.3     1  UNL1        0.0258
     35 C         141.3390  142.3075  165.9044 C.ar    1  UNL1        0.0189
     36 C         142.1239  141.0295  165.9234 C.ar    1  UNL1        0.0031
     37 C         142.2461  140.2432  167.1950 C.ar    1  UNL1        0.0712
     38 C         141.5834  140.7349  168.4475 C.ar    1  UNL1        0.0077
     39 C         140.7984  142.0130  168.4285 C.ar    1  UNL1        0.0712
     40 C         140.6762  142.7993  167.1570 C.ar    1  UNL1        0.0031
     41 C         143.0311  138.9652  167.2139 C.3     1  UNL1        0.4186
     42 F         143.8161  137.6870  167.2329 F       1  UNL1       -0.1659
     43 F         143.2998  139.1083  165.7452 F       1  UNL1       -0.1659
     44 F         142.7624  138.8219  168.6826 F       1  UNL1       -0.1659
     45 C         140.1356  142.5048  169.6811 C.3     1  UNL1        0.4186
     46 F         139.4729  142.9965  170.9337 F       1  UNL1       -0.1659
     47 F         140.1263  143.8993  169.1287 F       1  UNL1       -0.1659
     48 F         140.1449  141.1102  170.2335 F       1  UNL1       -0.1659
@<TRIPOS>UNITY_ATOM_ATTR
21 1
charge -1
@<TRIPOS>BOND
     1    25    26    1
     2    26     1    1
     3     1     2   ar
     4     2     3   ar
     5     3     4   ar
     6     4     7    1
     7     7     8   ar
     8     8     9   ar
     9     9    13    1
    10    13    14   ar
    11    14    15   ar
    12    15    16   ar
    13    16    20    1
    14    20    21   ar
    15    20    22   ar
    16    16    17   ar
    17    17    18   ar
    18    18    19    1
    19     9    10   ar
    20    10    11   ar
    21    11    12   ar
    22    12    23    1
    23    23    24    1
    24     4     5   ar
    25     5    27    1
    26    27    28    1
    27    28    29   am
    28    29    30    2
    29    29    31    1
    30    31    32    1
    31    32    35    1
    32    35    36   ar
    33    36    37   ar
    34    37    41    1
    35    41    42    1
    36    41    43    1
    37    41    44    1
    38    37    38   ar
    39    38    39   ar
    40    39    45    1
    41    45    46    1
    42    45    47    1
    43    45    48    1
    44    39    40   ar
    45    32    33    1
    46    33    34    1
    47     5     6   ar
    48     6     1   ar
    49    12     7   ar
    50    33    28    1
    51    18    13   ar
    52    40    35   ar
@<TRIPOS>MOLECULE
*****
 48 52 0 0 0
SMALL
GASTEIGER

@<TRIPOS>ATOM
      1 C         140.5748  145.1307  157.8048 C.ar    1  UNL1        0.3198
      2 N         141.7796  144.3505  157.3693 N.ar    1  UNL1       -0.1927
      3 C         141.9789  142.9454  157.8549 C.ar    1  UNL1        0.1049
      4 C         140.9734  142.3205  158.7761 C.ar    1  UNL1        0.0376
      5 C         139.7687  143.1007  159.2115 C.ar    1  UNL1        0.0853
      6 N         139.5693  144.5058  158.7259 N.ar    1  UNL1       -0.1969
      7 C         141.1728  140.9153  159.2617 C.ar    1  UNL1        0.0367
      8 C         141.6335  140.6658  160.6672 C.ar    1  UNL1        0.0031
      9 C         141.8328  139.2607  161.1528 C.ar    1  UNL1       -0.0001
     10 C         141.5715  138.1050  160.2330 C.ar    1  UNL1        0.0031
     11 C         141.1108  138.3546  158.8275 C.ar    1  UNL1        0.0369
     12 C         140.9114  139.7597  158.3418 C.ar    1  UNL1        0.1387
     13 C         142.2935  139.0112  162.5584 C.ar    1  UNL1       -0.0039
     14 C         141.3980  138.2947  163.5252 C.ar    1  UNL1       -0.0003
     15 C         141.8587  138.0452  164.9307 C.ar    1  UNL1        0.0011
     16 C         143.2150  138.5122  165.3695 C.ar    1  UNL1        0.0137
     17 C         144.1105  139.2288  164.4026 C.ar    1  UNL1       -0.0031
     18 C         143.6498  139.4782  162.9971 C.ar    1  UNL1       -0.0218
     19 C         144.5453  140.1947  162.0303 C.3     1  UNL1        0.0310
     20 C         143.6757  138.2628  166.7750 C.2     1  UNL1        0.0729
     21 O         143.1457  139.1037  167.8984 O.co2   1  UNL1       -0.5446
     22 O         144.6664  137.1725  167.0570 O.co2   1  UNL1       -0.5446
     23 O         140.4507  140.0092  156.9363 O.3     1  UNL1       -0.4714
     24 C         139.0071  140.3106  156.6626 C.3     1  UNL1        0.2525
     25 C         139.4048  146.8156  156.2103 C.3     1  UNL1        0.2559
     26 O         140.3754  146.5359  157.3191 O.3     1  UNL1       -0.4426
     27 C         138.7631  142.4758  160.1327 C.3     1  UNL1        0.1428
     28 N         138.9302  142.5968  161.6184 N.am    1  UNL1       -0.2380
     29 C         139.1660  143.8683  162.3785 C.2     1  UNL1        0.4055
     30 O         139.2760  145.2420  161.7863 O.2     1  UNL1       -0.2262
     31 O         139.2723  143.5249  163.8348 O.3     1  UNL1       -0.4320
     32 C         139.1023  142.0411  163.9748 C.3     1  UNL1        0.2107
     33 C         138.8909  141.4675  162.6050 C.3     1  UNL1        0.1233
     34 C         138.6775  140.0190  162.2790 C.3     1  UNL1        0.0258
     35 C         139.1375  141.2668  165.2590 C.ar    1  UNL1        0.0189
     36 C         139.8520  141.8269  166.4530 C.ar    1  UNL1        0.0031
     37 C         139.8872  141.0526  167.7373 C.ar    1  UNL1        0.0712
     38 C         139.2080  139.7184  167.8275 C.ar    1  UNL1        0.0077
     39 C         138.4934  139.1583  166.6335 C.ar    1  UNL1        0.0712
     40 C         138.4582  139.9325  165.3493 C.ar    1  UNL1        0.0031
     41 C         140.6018  141.6127  168.9313 C.3     1  UNL1        0.4186
     42 F         141.3164  142.1729  170.1253 F       1  UNL1       -0.1659
     43 F         140.7453  140.2299  169.4942 F       1  UNL1       -0.1659
     44 F         140.4583  142.9957  168.3684 F       1  UNL1       -0.1659
     45 C         137.8140  137.8240  166.7237 C.3     1  UNL1        0.4186
     46 F         137.1347  136.4897  166.8140 F       1  UNL1       -0.1659
     47 F         138.6508  137.3210  165.5850 F       1  UNL1       -0.1659
     48 F         136.9773  138.3270  167.8625 F       1  UNL1       -0.1659
@<TRIPOS>UNITY_ATOM_ATTR
21 1
charge -1
@<TRIPOS>BOND
     1    25    26    1
     2    26     1    1
     3     1     2   ar
     4     2     3   ar
     5     3     4   ar
     6     4     7    1
     7     7     8   ar
     8     8     9   ar
     9     9    13    1
    10    13    14   ar
    11    14    15   ar
    12    15    16   ar
    13    16    20    1
    14    20    21   ar
    15    20    22   ar
    16    16    17   ar
    17    17    18   ar
    18    18    19    1
    19     9    10   ar
    20    10    11   ar
    21    11    12   ar
    22    12    23    1
    23    23    24    1
    24     4     5   ar
    25     5    27    1
    26    27    28    1
    27    28    29   am
    28    29    30    2
    29    29    31    1
    30    31    32    1
    31    32    35    1
    32    35    36   ar
    33    36    37   ar
    34    37    41    1
    35    41    42    1
    36    41    43    1
    37    41    44    1
    38    37    38   ar
    39    38    39   ar
    40    39    45    1
    41    45    46    1
    42    45    47    1
    43    45    48    1
    44    39    40   ar
    45    32    33    1
    46    33    34    1
    47     5     6   ar
    48     6     1   ar
    49    12     7   ar
    50    33    28    1
    51    18    13   ar
    52    40    35   ar
@<TRIPOS>MOLECULE
*****
 48 52 0 0 0
SMALL
GASTEIGER

@<TRIPOS>ATOM
      1 C         140.6654  145.4668  158.0063 C.ar    1  UNL1        0.3198
      2 N         142.1290  145.1485  158.0862 N.ar    1  UNL1       -0.1927
      3 C         142.5996  143.9833  158.9054 C.ar    1  UNL1        0.1049
      4 C         141.6064  143.1364  159.6446 C.ar    1  UNL1        0.0376
      5 C         140.1428  143.4547  159.5646 C.ar    1  UNL1        0.0853
      6 N         139.6723  144.6199  158.7455 N.ar    1  UNL1       -0.1969
      7 C         142.0770  141.9713  160.4637 C.ar    1  UNL1        0.0367
      8 C         142.2308  142.1121  161.9491 C.ar    1  UNL1        0.0031
      9 C         142.7013  140.9470  162.7683 C.ar    1  UNL1       -0.0001
     10 C         143.0180  139.6409  162.1020 C.ar    1  UNL1        0.0031
     11 C         142.8642  139.5001  160.6166 C.ar    1  UNL1        0.0369
     12 C         142.3936  140.6652  159.7975 C.ar    1  UNL1        0.1387
     13 C         142.8551  141.0879  164.2537 C.ar    1  UNL1       -0.0039
     14 C         143.3903  142.3631  164.8347 C.ar    1  UNL1       -0.0003
     15 C         143.5441  142.5040  166.3202 C.ar    1  UNL1        0.0011
     16 C         143.1628  141.3697  167.2246 C.ar    1  UNL1        0.0137
     17 C         142.6276  140.0945  166.6436 C.ar    1  UNL1       -0.0031
     18 C         142.4738  139.9536  165.1582 C.ar    1  UNL1       -0.0218
     19 C         141.9387  138.6784  164.5771 C.3     1  UNL1        0.0310
     20 C         143.3166  141.5106  168.7100 C.2     1  UNL1        0.0729
     21 O         143.5614  142.8616  169.3139 O.co2   1  UNL1       -0.5446
     22 O         143.2256  140.3004  169.5915 O.co2   1  UNL1       -0.5446
     23 O         142.2398  140.5243  158.3120 O.3     1  UNL1       -0.4714
     24 C         141.5320  139.3314  157.7411 C.3     1  UNL1        0.2525
     25 C         140.1270  146.5196  155.6929 C.3     1  UNL1        0.2559
     26 O         140.1949  146.6319  157.1871 O.3     1  UNL1       -0.4426
     27 C         139.1496  142.6078  160.3039 C.3     1  UNL1        0.1428
     28 N         139.0549  142.6949  161.7983 N.am    1  UNL1       -0.2380
     29 C         138.8965  143.9528  162.5999 C.2     1  UNL1        0.4055
     30 O         138.8048  145.3445  162.0478 O.2     1  UNL1       -0.2262
     31 O         138.8457  143.5748  164.0506 O.3     1  UNL1       -0.4320
     32 C         138.9728  142.0831  164.1456 C.3     1  UNL1        0.2107
     33 C         139.1021  141.5394  162.7536 C.3     1  UNL1        0.1233
     34 C         139.2523  140.0939  162.3822 C.3     1  UNL1        0.0258
     35 C         138.9709  141.2769  165.4105 C.ar    1  UNL1        0.0189
     36 C         138.4133  139.8844  165.4115 C.ar    1  UNL1        0.0031
     37 C         138.4114  139.0782  166.6764 C.ar    1  UNL1        0.0712
     38 C         138.9671  139.6644  167.9402 C.ar    1  UNL1        0.0077
     39 C         139.5248  141.0568  167.9393 C.ar    1  UNL1        0.0712
     40 C         139.5267  141.8631  166.6744 C.ar    1  UNL1        0.0031
     41 C         137.8537  137.6857  166.6773 C.3     1  UNL1        0.4186
     42 F         137.2960  136.2932  166.6783 F       1  UNL1       -0.1659
     43 F         138.7826  137.3129  165.5602 F       1  UNL1       -0.1659
     44 F         136.9248  138.0585  167.7945 F       1  UNL1       -0.1659
     45 C         140.0806  141.6431  169.2032 C.3     1  UNL1        0.4186
     46 F         140.6364  142.2293  170.4671 F       1  UNL1       -0.1659
     47 F         139.8407  140.3429  169.9117 F       1  UNL1       -0.1659
     48 F         140.3205  142.9433  168.4947 F       1  UNL1       -0.1659
@<TRIPOS>UNITY_ATOM_ATTR
21 1
charge -1
@<TRIPOS>BOND
     1    25    26    1
     2    26     1    1
     3     1     2   ar
     4     2     3   ar
     5     3     4   ar
     6     4     7    1
     7     7     8   ar
     8     8     9   ar
     9     9    13    1
    10    13    14   ar
    11    14    15   ar
    12    15    16   ar
    13    16    20    1
    14    20    21   ar
    15    20    22   ar
    16    16    17   ar
    17    17    18   ar
    18    18    19    1
    19     9    10   ar
    20    10    11   ar
    21    11    12   ar
    22    12    23    1
    23    23    24    1
    24     4     5   ar
    25     5    27    1
    26    27    28    1
    27    28    29   am
    28    29    30    2
    29    29    31    1
    30    31    32    1
    31    32    35    1
    32    35    36   ar
    33    36    37   ar
    34    37    41    1
    35    41    42    1
    36    41    43    1
    37    41    44    1
    38    37    38   ar
    39    38    39   ar
    40    39    45    1
    41    45    46    1
    42    45    47    1
    43    45    48    1
    44    39    40   ar
    45    32    33    1
    46    33    34    1
    47     5     6   ar
    48     6     1   ar
    49    12     7   ar
    50    33    28    1
    51    18    13   ar
    52    40    35   ar
@<TRIPOS>MOLECULE
*****
 48 52 0 0 0
SMALL
GASTEIGER

@<TRIPOS>ATOM
      1 C         140.6060  145.1094  157.7768 C.ar    1  UNL1        0.3198
      2 N         141.7989  144.3060  157.3509 N.ar    1  UNL1       -0.1927
      3 C         141.9750  142.9025  157.8501 C.ar    1  UNL1        0.1049
      4 C         140.9582  142.3024  158.7752 C.ar    1  UNL1        0.0376
      5 C         139.7652  143.1058  159.2011 C.ar    1  UNL1        0.0853
      6 N         139.5891  144.5093  158.7019 N.ar    1  UNL1       -0.1969
      7 C         141.1343  140.8990  159.2745 C.ar    1  UNL1        0.0367
      8 C         141.6017  140.6556  160.6788 C.ar    1  UNL1        0.0031
      9 C         141.7778  139.2521  161.1780 C.ar    1  UNL1       -0.0001
     10 C         141.4864  138.0920  160.2729 C.ar    1  UNL1        0.0031
     11 C         141.0190  138.3354  158.8686 C.ar    1  UNL1        0.0369
     12 C         140.8429  139.7389  158.3694 C.ar    1  UNL1        0.1387
     13 C         142.2453  139.0087  162.5825 C.ar    1  UNL1       -0.0039
     14 C         141.3514  138.3034  163.5589 C.ar    1  UNL1       -0.0003
     15 C         141.8189  138.0601  164.9633 C.ar    1  UNL1        0.0011
     16 C         143.1803  138.5221  165.3912 C.ar    1  UNL1        0.0137
     17 C         144.0742  139.2274  164.4147 C.ar    1  UNL1       -0.0031
     18 C         143.6067  139.4708  163.0104 C.ar    1  UNL1       -0.0218
     19 C         144.5006  140.1761  162.0339 C.3     1  UNL1        0.0310
     20 C         143.6478  138.2788  166.7955 C.2     1  UNL1        0.0729
     21 O         143.1131  139.1157  167.9196 O.co2   1  UNL1       -0.5446
     22 O         144.6501  137.1985  167.0757 O.co2   1  UNL1       -0.5446
     23 O         140.3754  139.9822  156.9650 O.3     1  UNL1       -0.4714
     24 C         139.5341  138.9557  156.2661 C.3     1  UNL1        0.2525
     25 C         139.7358  146.7628  155.9715 C.3     1  UNL1        0.2559
     26 O         140.4299  146.5129  157.2775 O.3     1  UNL1       -0.4426
     27 C         138.7483  142.5058  160.1263 C.3     1  UNL1        0.1428
     28 N         138.9266  142.6184  161.6114 N.am    1  UNL1       -0.2380
     29 C         139.1724  143.8851  162.3763 C.2     1  UNL1        0.4055
     30 O         139.2831  145.2615  161.7904 O.2     1  UNL1       -0.2262
     31 O         139.2881  143.5338  163.8299 O.3     1  UNL1       -0.4320
     32 C         139.1138  142.0499  163.9635 C.3     1  UNL1        0.2107
     33 C         138.8904  141.4842  162.5923 C.3     1  UNL1        0.1233
     34 C         138.6695  140.0382  162.2604 C.3     1  UNL1        0.0258
     35 C         139.1556  141.2689  165.2434 C.ar    1  UNL1        0.0189
     36 C         138.4654  139.9403  165.3342 C.ar    1  UNL1        0.0031
     37 C         138.5071  139.1593  166.6141 C.ar    1  UNL1        0.0712
     38 C         139.2391  139.7069  167.8033 C.ar    1  UNL1        0.0077
     39 C         139.9294  141.0355  167.7126 C.ar    1  UNL1        0.0712
     40 C         139.8876  141.8165  166.4326 C.ar    1  UNL1        0.0031
     41 C         137.8169  137.8306  166.7048 C.3     1  UNL1        0.4186
     42 F         137.1266  136.5019  166.7956 F       1  UNL1       -0.1659
     43 F         138.6482  137.3208  165.5652 F       1  UNL1       -0.1659
     44 F         136.9855  138.3403  167.8445 F       1  UNL1       -0.1659
     45 C         140.6614  141.5832  168.9018 C.3     1  UNL1        0.4186
     46 F         141.3934  142.1308  170.0910 F       1  UNL1       -0.1659
     47 F         140.6361  140.2268  169.5420 F       1  UNL1       -0.1659
     48 F         140.6867  142.9395  168.2617 F       1  UNL1       -0.1659
@<TRIPOS>UNITY_ATOM_ATTR
21 1
charge -1
@<TRIPOS>BOND
     1    25    26    1
     2    26     1    1
     3     1     2   ar
     4     2     3   ar
     5     3     4   ar
     6     4     7    1
     7     7     8   ar
     8     8     9   ar
     9     9    13    1
    10    13    14   ar
    11    14    15   ar
    12    15    16   ar
    13    16    20    1
    14    20    21   ar
    15    20    22   ar
    16    16    17   ar
    17    17    18   ar
    18    18    19    1
    19     9    10   ar
    20    10    11   ar
    21    11    12   ar
    22    12    23    1
    23    23    24    1
    24     4     5   ar
    25     5    27    1
    26    27    28    1
    27    28    29   am
    28    29    30    2
    29    29    31    1
    30    31    32    1
    31    32    35    1
    32    35    36   ar
    33    36    37   ar
    34    37    41    1
    35    41    42    1
    36    41    43    1
    37    41    44    1
    38    37    38   ar
    39    38    39   ar
    40    39    45    1
    41    45    46    1
    42    45    47    1
    43    45    48    1
    44    39    40   ar
    45    32    33    1
    46    33    34    1
    47     5     6   ar
    48     6     1   ar
    49    12     7   ar
    50    33    28    1
    51    18    13   ar
    52    40    35   ar
@<TRIPOS>MOLECULE
*****
 48 52 0 0 0
SMALL
GASTEIGER

@<TRIPOS>ATOM
      1 C         142.8630  137.0515  156.6248 C.ar    1  UNL1        0.3198
      2 N         141.3829  136.8318  156.5200 N.ar    1  UNL1       -0.1927
      3 C         140.4413  137.6643  157.3387 C.ar    1  UNL1        0.1049
      4 C         140.9797  138.7165  158.2623 C.ar    1  UNL1        0.0376
      5 C         142.4598  138.9362  158.3671 C.ar    1  UNL1        0.0853
      6 N         143.4015  138.1037  157.5484 N.ar    1  UNL1       -0.1969
      7 C         140.0381  139.5490  159.0810 C.ar    1  UNL1        0.0367
      8 C         139.8232  139.2311  160.5311 C.ar    1  UNL1        0.0031
      9 C         138.8815  140.0636  161.3498 C.ar    1  UNL1       -0.0001
     10 C         138.1548  141.2139  160.7184 C.ar    1  UNL1        0.0031
     11 C         138.3698  141.5318  159.2684 C.ar    1  UNL1        0.0369
     12 C         139.3114  140.6993  158.4496 C.ar    1  UNL1        0.1387
     13 C         138.6666  139.7457  162.7999 C.ar    1  UNL1       -0.0039
     14 C         139.0805  138.4108  163.3444 C.ar    1  UNL1       -0.0003
     15 C         138.8656  138.0929  164.7946 C.ar    1  UNL1        0.0011
     16 C         138.2367  139.1100  165.7001 C.ar    1  UNL1        0.0137
     17 C         137.8228  140.4450  165.1555 C.ar    1  UNL1       -0.0031
     18 C         138.0378  140.7629  163.7055 C.ar    1  UNL1       -0.0218
     19 C         137.6238  142.0979  163.1609 C.3     1  UNL1        0.0310
     20 C         138.0218  138.7922  167.1502 C.2     1  UNL1        0.0729
     21 O         138.8644  139.4587  168.1970 O.co2   1  UNL1       -0.5446
     22 O         136.9642  137.8079  167.5534 O.co2   1  UNL1       -0.5446
     23 O         139.5263  141.0172  156.9995 O.3     1  UNL1       -0.4714
     24 C         138.4695  140.6741  155.9919 C.3     1  UNL1        0.2525
     25 C         143.7182  134.7224  155.8545 C.3     1  UNL1        0.2559
     26 O         143.8047  136.2191  155.8061 O.3     1  UNL1       -0.4426
     27 C         142.9983  139.9884  159.2906 C.3     1  UNL1        0.1428
     28 N         142.9201  139.7940  160.7759 N.am    1  UNL1       -0.2380
     29 C         143.3823  138.5839  161.5322 C.2     1  UNL1        0.4055
     30 O         144.0039  137.3558  160.9361 O.2     1  UNL1       -0.2262
     31 O         143.1138  138.8175  162.9894 O.3     1  UNL1       -0.4320
     32 C         142.4857  140.1721  163.1337 C.3     1  UNL1        0.2107
     33 C         142.3660  140.7755  161.7656 C.3     1  UNL1        0.1233
     34 C         141.7927  142.1238  161.4439 C.3     1  UNL1        0.0258
     35 C         142.0532  140.8109  164.4200 C.ar    1  UNL1        0.0189
     36 C         141.1725  142.0248  164.3957 C.ar    1  UNL1        0.0031
     37 C         140.7400  142.6636  165.6820 C.ar    1  UNL1        0.0712
     38 C         141.1882  142.0886  166.9928 C.ar    1  UNL1        0.0077
     39 C         142.0689  140.8746  167.0173 C.ar    1  UNL1        0.0712
     40 C         142.5014  140.2358  165.7309 C.ar    1  UNL1        0.0031
     41 C         139.8592  143.8776  165.6576 C.3     1  UNL1        0.4186
     42 F         138.9784  145.0916  165.6332 F       1  UNL1       -0.1659
     43 F         140.0517  143.9874  164.1741 F       1  UNL1       -0.1659
     44 F         139.6667  143.7678  167.1411 F       1  UNL1       -0.1659
     45 C         142.5172  140.2995  168.3282 C.3     1  UNL1        0.4186
     46 F         142.9655  139.7244  169.6390 F       1  UNL1       -0.1659
     47 F         142.4368  141.6608  168.9529 F       1  UNL1       -0.1659
     48 F         142.5976  138.9381  167.7034 F       1  UNL1       -0.1659
@<TRIPOS>UNITY_ATOM_ATTR
21 1
charge -1
@<TRIPOS>BOND
     1    25    26    1
     2    26     1    1
     3     1     2   ar
     4     2     3   ar
     5     3     4   ar
     6     4     7    1
     7     7     8   ar
     8     8     9   ar
     9     9    13    1
    10    13    14   ar
    11    14    15   ar
    12    15    16   ar
    13    16    20    1
    14    20    21   ar
    15    20    22   ar
    16    16    17   ar
    17    17    18   ar
    18    18    19    1
    19     9    10   ar
    20    10    11   ar
    21    11    12   ar
    22    12    23    1
    23    23    24    1
    24     4     5   ar
    25     5    27    1
    26    27    28    1
    27    28    29   am
    28    29    30    2
    29    29    31    1
    30    31    32    1
    31    32    35    1
    32    35    36   ar
    33    36    37   ar
    34    37    41    1
    35    41    42    1
    36    41    43    1
    37    41    44    1
    38    37    38   ar
    39    38    39   ar
    40    39    45    1
    41    45    46    1
    42    45    47    1
    43    45    48    1
    44    39    40   ar
    45    32    33    1
    46    33    34    1
    47     5     6   ar
    48     6     1   ar
    49    12     7   ar
    50    33    28    1
    51    18    13   ar
    52    40    35   ar
@<TRIPOS>MOLECULE
*****
 48 52 0 0 0
SMALL
GASTEIGER

@<TRIPOS>ATOM
      1 C         140.5800  145.4646  157.7788 C.ar    1  UNL1        0.3198
      2 N         142.0507  145.1718  157.8112 N.ar    1  UNL1       -0.1927
      3 C         142.5679  144.0161  158.6155 C.ar    1  UNL1        0.1049
      4 C         141.6142  143.1532  159.3875 C.ar    1  UNL1        0.0376
      5 C         140.1435  143.4460  159.3551 C.ar    1  UNL1        0.0853
      6 N         139.6263  144.6017  158.5508 N.ar    1  UNL1       -0.1969
      7 C         142.1314  141.9975  160.1918 C.ar    1  UNL1        0.0367
      8 C         142.2660  142.1205  161.6807 C.ar    1  UNL1        0.0031
      9 C         142.7832  140.9649  162.4850 C.ar    1  UNL1       -0.0001
     10 C         143.1656  139.6862  161.8005 C.ar    1  UNL1        0.0031
     11 C         143.0309  139.5631  160.3117 C.ar    1  UNL1        0.0369
     12 C         142.5138  140.7188  159.5073 C.ar    1  UNL1        0.1387
     13 C         142.9178  141.0879  163.9739 C.ar    1  UNL1       -0.0039
     14 C         143.4432  142.3568  164.5771 C.ar    1  UNL1       -0.0003
     15 C         143.5778  142.4799  166.0661 C.ar    1  UNL1        0.0011
     16 C         143.1872  141.3340  166.9517 C.ar    1  UNL1        0.0137
     17 C         142.6618  140.0651  166.3484 C.ar    1  UNL1       -0.0031
     18 C         142.5272  139.9421  164.8596 C.ar    1  UNL1       -0.0218
     19 C         142.0018  138.6731  164.2563 C.3     1  UNL1        0.0310
     20 C         143.3218  141.4570  168.4405 C.2     1  UNL1        0.0729
     21 O         143.1224  140.2537  169.3136 O.co2   1  UNL1       -0.5446
     22 O         143.6559  142.7834  169.0563 O.co2   1  UNL1       -0.5446
     23 O         142.3791  140.5957  158.0184 O.3     1  UNL1       -0.4714
     24 C         141.7090  139.3932  157.4228 C.3     1  UNL1        0.2525
     25 C         140.3457  146.6965  155.5034 C.3     1  UNL1        0.2559
     26 O         140.0628  146.6203  156.9745 O.3     1  UNL1       -0.4426
     27 C         139.1898  142.5831  160.1271 C.3     1  UNL1        0.1428
     28 N         139.1118  142.7015  161.6204 N.am    1  UNL1       -0.2380
     29 C         138.9734  143.9769  162.3977 C.2     1  UNL1        0.4055
     30 O         138.8888  145.3578  161.8182 O.2     1  UNL1       -0.2262
     31 O         138.9346  143.6289  163.8562 O.3     1  UNL1       -0.4320
     32 C         139.0489  142.1384  163.9804 C.3     1  UNL1        0.2107
     33 C         139.1584  141.5652  162.5986 C.3     1  UNL1        0.1233
     34 C         139.2913  140.1111  162.2552 C.3     1  UNL1        0.0258
     35 C         139.0531  141.3581  165.2615 C.ar    1  UNL1        0.0189
     36 C         139.5996  141.9759  166.5142 C.ar    1  UNL1        0.0031
     37 C         139.6037  141.1956  167.7952 C.ar    1  UNL1        0.0712
     38 C         139.0613  139.7975  167.8235 C.ar    1  UNL1        0.0077
     39 C         138.5147  139.1796  166.5708 C.ar    1  UNL1        0.0712
     40 C         138.5106  139.9599  165.2898 C.ar    1  UNL1        0.0031
     41 C         140.1504  141.8135  169.0480 C.3     1  UNL1        0.4186
     42 F         140.6970  142.4314  170.3008 F       1  UNL1       -0.1659
     43 F         140.4337  143.0818  168.2989 F       1  UNL1       -0.1659
     44 F         139.8670  140.5453  169.7972 F       1  UNL1       -0.1659
     45 C         137.9722  137.7814  166.5991 C.3     1  UNL1        0.4186
     46 F         137.4297  136.3832  166.6274 F       1  UNL1       -0.1659
     47 F         138.9064  137.3965  165.4905 F       1  UNL1       -0.1659
     48 F         137.0379  138.1663  167.7077 F       1  UNL1       -0.1659
@<TRIPOS>UNITY_ATOM_ATTR
21 1
charge -1
@<TRIPOS>BOND
     1    25    26    1
     2    26     1    1
     3     1     2   ar
     4     2     3   ar
     5     3     4   ar
     6     4     7    1
     7     7     8   ar
     8     8     9   ar
     9     9    13    1
    10    13    14   ar
    11    14    15   ar
    12    15    16   ar
    13    16    20    1
    14    20    21   ar
    15    20    22   ar
    16    16    17   ar
    17    17    18   ar
    18    18    19    1
    19     9    10   ar
    20    10    11   ar
    21    11    12   ar
    22    12    23    1
    23    23    24    1
    24     4     5   ar
    25     5    27    1
    26    27    28    1
    27    28    29   am
    28    29    30    2
    29    29    31    1
    30    31    32    1
    31    32    35    1
    32    35    36   ar
    33    36    37   ar
    34    37    41    1
    35    41    42    1
    36    41    43    1
    37    41    44    1
    38    37    38   ar
    39    38    39   ar
    40    39    45    1
    41    45    46    1
    42    45    47    1
    43    45    48    1
    44    39    40   ar
    45    32    33    1
    46    33    34    1
    47     5     6   ar
    48     6     1   ar
    49    12     7   ar
    50    33    28    1
    51    18    13   ar
    52    40    35   ar
@<TRIPOS>MOLECULE
*****
 48 52 0 0 0
SMALL
GASTEIGER

@<TRIPOS>ATOM
      1 C         142.8866  136.9102  156.5539 C.ar    1  UNL1        0.3198
      2 N         141.4096  136.6602  156.4771 N.ar    1  UNL1       -0.1927
      3 C         140.4642  137.4971  157.2870 C.ar    1  UNL1        0.1049
      4 C         140.9958  138.5840  158.1735 C.ar    1  UNL1        0.0376
      5 C         142.4728  138.8340  158.2503 C.ar    1  UNL1        0.0853
      6 N         143.4182  137.9971  157.4405 N.ar    1  UNL1       -0.1969
      7 C         140.0504  139.4209  158.9833 C.ar    1  UNL1        0.0367
      8 C         139.8373  139.1179  160.4369 C.ar    1  UNL1        0.0031
      9 C         138.8919  139.9548  161.2467 C.ar    1  UNL1       -0.0001
     10 C         138.1595  141.0946  160.6030 C.ar    1  UNL1        0.0031
     11 C         138.3726  141.3976  159.1495 C.ar    1  UNL1        0.0369
     12 C         139.3180  140.5607  158.3396 C.ar    1  UNL1        0.1387
     13 C         138.6788  139.6518  162.7003 C.ar    1  UNL1       -0.0039
     14 C         139.0450  138.3038  163.2469 C.ar    1  UNL1       -0.0003
     15 C         138.8319  138.0008  164.7005 C.ar    1  UNL1        0.0011
     16 C         138.2527  139.0458  165.6074 C.ar    1  UNL1        0.0137
     17 C         137.8865  140.3939  165.0607 C.ar    1  UNL1       -0.0031
     18 C         138.0996  140.6968  163.6072 C.ar    1  UNL1       -0.0218
     19 C         137.7334  142.0448  163.0604 C.3     1  UNL1        0.0310
     20 C         138.0396  138.7429  167.0609 C.2     1  UNL1        0.0729
     21 O         138.8573  139.4485  168.1018 O.co2   1  UNL1       -0.5446
     22 O         137.0089  137.7343  167.4735 O.co2   1  UNL1       -0.5446
     23 O         139.5311  140.8637  156.8860 O.3     1  UNL1       -0.4714
     24 C         140.5751  141.8582  156.4724 C.3     1  UNL1        0.2525
     25 C         143.7278  134.5774  155.7791 C.3     1  UNL1        0.2559
     26 O         143.8321  136.0733  155.7441 O.3     1  UNL1       -0.4426
     27 C         143.0044  139.9209  159.1369 C.3     1  UNL1        0.1428
     28 N         142.9280  139.7771  160.6280 N.am    1  UNL1       -0.2380
     29 C         143.3916  138.5936  161.4245 C.2     1  UNL1        0.4055
     30 O         144.0131  137.3462  160.8697 O.2     1  UNL1       -0.2262
     31 O         143.1247  138.8765  162.8732 O.3     1  UNL1       -0.4320
     32 C         142.4961  140.2349  162.9720 C.3     1  UNL1        0.2107
     33 C         142.3745  140.7914  161.5844 C.3     1  UNL1        0.1233
     34 C         141.8003  142.1277  161.2177 C.3     1  UNL1        0.0258
     35 C         142.0648  140.9169  164.2365 C.ar    1  UNL1        0.0189
     36 C         142.5180  140.3893  165.5654 C.ar    1  UNL1        0.0031
     37 C         142.0867  141.0713  166.8298 C.ar    1  UNL1        0.0712
     38 C         141.2022  142.2809  166.7653 C.ar    1  UNL1        0.0077
     39 C         140.7489  142.8086  165.4364 C.ar    1  UNL1        0.0712
     40 C         141.1802  142.1266  164.1720 C.ar    1  UNL1        0.0031
     41 C         142.5400  140.5436  168.1587 C.3     1  UNL1        0.4186
     42 F         142.9933  140.0159  169.4877 F       1  UNL1       -0.1659
     43 F         142.3449  139.1397  167.6679 F       1  UNL1       -0.1659
     44 F         142.7352  141.9475  168.6496 F       1  UNL1       -0.1659
     45 C         139.8643  144.0183  165.3719 C.3     1  UNL1        0.4186
     46 F         138.9798  145.2281  165.3074 F       1  UNL1       -0.1659
     47 F         139.5758  143.8855  166.8379 F       1  UNL1       -0.1659
     48 F         140.1529  144.1512  163.9059 F       1  UNL1       -0.1659
@<TRIPOS>UNITY_ATOM_ATTR
21 1
charge -1
@<TRIPOS>BOND
     1    25    26    1
     2    26     1    1
     3     1     2   ar
     4     2     3   ar
     5     3     4   ar
     6     4     7    1
     7     7     8   ar
     8     8     9   ar
     9     9    13    1
    10    13    14   ar
    11    14    15   ar
    12    15    16   ar
    13    16    20    1
    14    20    21   ar
    15    20    22   ar
    16    16    17   ar
    17    17    18   ar
    18    18    19    1
    19     9    10   ar
    20    10    11   ar
    21    11    12   ar
    22    12    23    1
    23    23    24    1
    24     4     5   ar
    25     5    27    1
    26    27    28    1
    27    28    29   am
    28    29    30    2
    29    29    31    1
    30    31    32    1
    31    32    35    1
    32    35    36   ar
    33    36    37   ar
    34    37    41    1
    35    41    42    1
    36    41    43    1
    37    41    44    1
    38    37    38   ar
    39    38    39   ar
    40    39    45    1
    41    45    46    1
    42    45    47    1
    43    45    48    1
    44    39    40   ar
    45    32    33    1
    46    33    34    1
    47     5     6   ar
    48     6     1   ar
    49    12     7   ar
    50    33    28    1
    51    18    13   ar
    52    40    35   ar
@<TRIPOS>MOLECULE
*****
 48 52 0 0 0
SMALL
GASTEIGER

@<TRIPOS>ATOM
      1 C         144.9034  142.4198  158.5386 C.ar    1  UNL1        0.3198
      2 N         144.3915  141.0389  158.2540 N.ar    1  UNL1       -0.1927
      3 C         142.9985  140.6572  158.6591 C.ar    1  UNL1        0.1049
      4 C         142.1176  141.6563  159.3487 C.ar    1  UNL1        0.0376
      5 C         142.6295  143.0372  159.6332 C.ar    1  UNL1        0.0853
      6 N         144.0225  143.4189  159.2282 N.ar    1  UNL1       -0.1969
      7 C         140.7247  141.2746  159.7537 C.ar    1  UNL1        0.0367
      8 C         140.4472  140.8316  161.1596 C.ar    1  UNL1        0.0031
      9 C         139.0543  140.4499  161.5647 C.ar    1  UNL1       -0.0001
     10 C         137.9388  140.5111  160.5638 C.ar    1  UNL1        0.0031
     11 C         138.2162  140.9541  159.1578 C.ar    1  UNL1        0.0369
     12 C         139.6092  141.3358  158.7528 C.ar    1  UNL1        0.1387
     13 C         138.7769  140.0069  162.9707 C.ar    1  UNL1       -0.0039
     14 C         138.1422  140.9550  163.9444 C.ar    1  UNL1       -0.0003
     15 C         137.8648  140.5120  165.3504 C.ar    1  UNL1        0.0011
     16 C         138.2221  139.1208  165.7827 C.ar    1  UNL1        0.0137
     17 C         138.8569  138.1726  164.8090 C.ar    1  UNL1       -0.0031
     18 C         139.1342  138.6157  163.4030 C.ar    1  UNL1       -0.0218
     19 C         139.7690  137.6675  162.4293 C.3     1  UNL1        0.0310
     20 C         137.9448  138.6778  167.1887 C.2     1  UNL1        0.0729
     21 O         136.9517  137.5840  167.4482 O.co2   1  UNL1       -0.5446
     22 O         138.6604  139.3286  168.3350 O.co2   1  UNL1       -0.5446
     23 O         139.8866  141.7788  157.3467 O.3     1  UNL1       -0.4714
     24 C         138.8046  141.7066  156.3104 C.3     1  UNL1        0.2525
     25 C         146.7951  142.4695  156.7585 C.3     1  UNL1        0.2559
     26 O         146.2963  142.8015  158.1336 O.3     1  UNL1       -0.4426
     27 C         141.7486  144.0364  160.3228 C.3     1  UNL1        0.1428
     28 N         141.2155  143.7457  161.6944 N.am    1  UNL1       -0.2380
     29 C         139.9014  144.2127  162.2468 C.2     1  UNL1        0.4055
     30 O         138.8898  145.0524  161.5247 O.2     1  UNL1       -0.2262
     31 O         139.7766  143.6926  163.6482 O.3     1  UNL1       -0.4320
     32 C         141.0136  142.9042  163.9619 C.3     1  UNL1        0.2107
     33 C         141.9028  142.9370  162.7544 C.3     1  UNL1        0.1233
     34 C         143.2440  142.2770  162.6289 C.3     1  UNL1        0.0258
     35 C         141.3094  142.2056  165.2559 C.ar    1  UNL1        0.0189
     36 C         140.8166  142.7830  166.5496 C.ar    1  UNL1        0.0031
     37 C         141.1123  142.0844  167.8437 C.ar    1  UNL1        0.0712
     38 C         141.9008  140.8085  167.8440 C.ar    1  UNL1        0.0077
     39 C         142.3937  140.2310  166.5503 C.ar    1  UNL1        0.0712
     40 C         142.0979  140.9296  165.2563 C.ar    1  UNL1        0.0031
     41 C         140.6195  142.6618  169.1374 C.3     1  UNL1        0.4186
     42 F         140.1267  143.2394  170.4311 F       1  UNL1       -0.1659
     43 F         141.1853  141.4864  169.8776 F       1  UNL1       -0.1659
     44 F         140.0537  143.8373  168.3971 F       1  UNL1       -0.1659
     45 C         143.1822  138.9550  166.5506 C.3     1  UNL1        0.4186
     46 F         143.9708  137.6790  166.5509 F       1  UNL1       -0.1659
     47 F         143.5027  139.1527  165.0986 F       1  UNL1       -0.1659
     48 F         142.8617  138.7573  168.0026 F       1  UNL1       -0.1659
@<TRIPOS>UNITY_ATOM_ATTR
21 1
charge -1
@<TRIPOS>BOND
     1    25    26    1
     2    26     1    1
     3     1     2   ar
     4     2     3   ar
     5     3     4   ar
     6     4     7    1
     7     7     8   ar
     8     8     9   ar
     9     9    13    1
    10    13    14   ar
    11    14    15   ar
    12    15    16   ar
    13    16    20    1
    14    20    21   ar
    15    20    22   ar
    16    16    17   ar
    17    17    18   ar
    18    18    19    1
    19     9    10   ar
    20    10    11   ar
    21    11    12   ar
    22    12    23    1
    23    23    24    1
    24     4     5   ar
    25     5    27    1
    26    27    28    1
    27    28    29   am
    28    29    30    2
    29    29    31    1
    30    31    32    1
    31    32    35    1
    32    35    36   ar
    33    36    37   ar
    34    37    41    1
    35    41    42    1
    36    41    43    1
    37    41    44    1
    38    37    38   ar
    39    38    39   ar
    40    39    45    1
    41    45    46    1
    42    45    47    1
    43    45    48    1
    44    39    40   ar
    45    32    33    1
    46    33    34    1
    47     5     6   ar
    48     6     1   ar
    49    12     7   ar
    50    33    28    1
    51    18    13   ar
    52    40    35   ar
