@<TRIPOS>MOLECULE
*****
 33 36 0 0 0
SMALL
GASTEIGER

@<TRIPOS>ATOM
      1 C         138.4022  143.8406  162.8943 C.3     1  UNL1        0.0570
      2 C         138.5676  143.8170  164.3849 C.3     1  UNL1        0.0331
      3 C         138.4819  142.5171  165.1285 C.3     1  UNL1        0.0735
      4 N         138.2309  141.2409  164.3814 N.3     1  UNL1       -0.2710
      5 C         138.0655  141.2644  162.8908 C.3     1  UNL1        0.0735
      6 C         138.1511  142.5643  162.1472 C.3     1  UNL1        0.0331
      7 N         138.4878  145.1405  162.1506 N.3     1  UNL1       -0.2947
      8 H         138.2304  144.9439  161.1834 H       1  UNL1        0.1235
      9 C         139.7824  145.8969  162.1090 C.3     1  UNL1        0.0972
     10 C         144.9934  142.9233  162.0463 C.3     1  UNL1        0.0528
     11 C         143.6906  143.6667  162.0620 C.ar    1  UNL1        0.0689
     12 N         142.8333  143.7037  160.8317 N.ar    1  UNL1       -0.2477
     13 C         141.5306  144.4470  160.8473 C.ar    1  UNL1        0.0955
     14 C         141.0851  145.1535  162.0933 C.ar    1  UNL1        0.0135
     15 C         141.9424  145.1166  163.3237 C.ar    1  UNL1        0.0101
     16 C         143.2452  144.3732  163.3080 C.ar    1  UNL1        0.0817
     17 C         144.1025  144.3363  164.5383 C.1     1  UNL1        0.1016
     18 N         144.9597  144.2994  165.7686 N.1     1  UNL1       -0.1908
     19 C         138.1453  139.9409  165.1251 C.3     1  UNL1        0.0970
     20 C         139.3933  139.2890  165.6421 C.3     1  UNL1        0.1264
     21 N         140.5215  140.1324  166.1581 N.ar    1  UNL1       -0.2927
     22 C         141.6547  140.5065  165.2493 C.ar    1  UNL1        0.2611
     23 O         141.6597  140.0374  163.8245 O.2     1  UNL1       -0.2670
     24 C         142.7828  141.3497  165.7652 C.ar    1  UNL1        0.0623
     25 C         142.7777  141.8189  167.1900 C.ar    1  UNL1        0.0236
     26 C         141.6446  141.4447  168.0988 C.ar    1  UNL1        0.0785
     27 C         140.5165  140.6015  167.5828 C.ar    1  UNL1        0.0785
     28 C         139.3832  140.2273  168.4916 C.ar    1  UNL1        0.0236
     29 C         139.3782  140.6964  169.9164 C.ar    1  UNL1        0.0623
     30 C         140.5064  141.5397  170.4323 C.ar    1  UNL1        0.2611
     31 O         140.5013  142.0089  171.8570 O.2     1  UNL1       -0.2670
     32 N         141.6395  141.9139  169.5235 N.ar    1  UNL1       -0.2922
     33 C         142.7676  142.7571  170.0395 C.3     1  UNL1        0.1336
@<TRIPOS>BOND
     1    10    11    1
     2    11    12   ar
     3    12    13   ar
     4    13    14   ar
     5    14     9    1
     6     9     7    1
     7     7     1    1
     8     1     2    1
     9     2     3    1
    10     3     4    1
    11     4    19    1
    12    19    20    1
    13    20    21    1
    14    21    22   ar
    15    22    23    2
    16    22    24   ar
    17    24    25   ar
    18    25    26   ar
    19    26    27   ar
    20    27    28   ar
    21    28    29   ar
    22    29    30   ar
    23    30    31    2
    24    30    32   ar
    25    32    33    1
    26     4     5    1
    27     5     6    1
    28    14    15   ar
    29    15    16   ar
    30    16    17    1
    31    17    18    3
    32    16    11   ar
    33     6     1    1
    34    27    21   ar
    35    32    26   ar
    36     7     8    1
@<TRIPOS>MOLECULE
*****
 33 36 0 0 0
SMALL
GASTEIGER

@<TRIPOS>ATOM
      1 C         137.8538  142.9114  162.2522 C.3     1  UNL1        0.0570
      2 C         137.4741  142.0778  163.4400 C.3     1  UNL1        0.0331
      3 C         137.6194  140.5859  163.3865 C.3     1  UNL1        0.0735
      4 N         138.1444  139.9274  162.1452 N.3     1  UNL1       -0.2710
      5 C         138.5241  140.7610  160.9574 C.3     1  UNL1        0.0735
      6 C         138.3788  142.2529  161.0109 C.3     1  UNL1        0.0331
      7 N         137.7086  144.4034  162.3057 N.3     1  UNL1       -0.2947
      8 H         137.5671  144.7200  161.3464 H       1  UNL1        0.1235
      9 C         138.8095  145.2440  162.8812 C.3     1  UNL1        0.0972
     10 C         144.5308  143.5686  162.2024 C.3     1  UNL1        0.0528
     11 C         143.1004  143.9874  162.3722 C.ar    1  UNL1        0.0689
     12 N         142.3362  144.5370  161.2042 N.ar    1  UNL1       -0.2477
     13 C         140.9059  144.9558  161.3739 C.ar    1  UNL1        0.0955
     14 C         140.2398  144.8251  162.7116 C.ar    1  UNL1        0.0135
     15 C         141.0040  144.2756  163.8795 C.ar    1  UNL1        0.0101
     16 C         142.4343  143.8568  163.7097 C.ar    1  UNL1        0.0817
     17 C         143.1985  143.3072  164.8777 C.1     1  UNL1        0.1016
     18 N         143.9627  142.7577  166.0456 N.1     1  UNL1       -0.1908
     19 C         138.2896  138.4354  162.0918 C.3     1  UNL1        0.0970
     20 C         138.8097  137.6893  163.2845 C.3     1  UNL1        0.1264
     21 N         140.0766  138.1339  163.9535 N.ar    1  UNL1       -0.2927
     22 C         141.3901  137.9896  163.2436 C.ar    1  UNL1        0.2611
     23 O         141.4367  137.4007  161.8649 O.2     1  UNL1       -0.2670
     24 C         142.6569  138.4342  163.9126 C.ar    1  UNL1        0.0623
     25 C         142.6102  139.0231  165.2913 C.ar    1  UNL1        0.0236
     26 C         141.2967  139.1674  166.0012 C.ar    1  UNL1        0.0785
     27 C         140.0299  138.7228  165.3322 C.ar    1  UNL1        0.0785
     28 C         138.7164  138.8671  166.0421 C.ar    1  UNL1        0.0236
     29 C         138.6697  139.4560  167.4209 C.ar    1  UNL1        0.0623
     30 C         139.9366  139.9006  168.0898 C.ar    1  UNL1        0.2611
     31 O         139.8899  140.4895  169.4686 O.2     1  UNL1       -0.2670
     32 N         141.2500  139.7563  167.3800 N.ar    1  UNL1       -0.2922
     33 C         142.5168  140.2009  168.0489 C.3     1  UNL1        0.1336
@<TRIPOS>BOND
     1    10    11    1
     2    11    12   ar
     3    12    13   ar
     4    13    14   ar
     5    14     9    1
     6     9     7    1
     7     7     1    1
     8     1     2    1
     9     2     3    1
    10     3     4    1
    11     4    19    1
    12    19    20    1
    13    20    21    1
    14    21    22   ar
    15    22    23    2
    16    22    24   ar
    17    24    25   ar
    18    25    26   ar
    19    26    27   ar
    20    27    28   ar
    21    28    29   ar
    22    29    30   ar
    23    30    31    2
    24    30    32   ar
    25    32    33    1
    26     4     5    1
    27     5     6    1
    28    14    15   ar
    29    15    16   ar
    30    16    17    1
    31    17    18    3
    32    16    11   ar
    33     6     1    1
    34    27    21   ar
    35    32    26   ar
    36     7     8    1
@<TRIPOS>MOLECULE
*****
 33 36 0 0 0
SMALL
GASTEIGER

@<TRIPOS>ATOM
      1 C         138.3914  144.0413  162.9059 C.3     1  UNL1        0.0570
      2 C         138.4481  144.0280  164.4048 C.3     1  UNL1        0.0331
      3 C         138.3935  142.7249  165.1458 C.3     1  UNL1        0.0735
      4 N         138.2822  141.4352  164.3880 N.3     1  UNL1       -0.2710
      5 C         138.2256  141.4486  162.8891 C.3     1  UNL1        0.0735
      6 C         138.2801  142.7516  162.1481 C.3     1  UNL1        0.0331
      7 N         138.4459  145.3443  162.1649 N.3     1  UNL1       -0.2947
      8 H         137.9772  145.1948  161.2714 H       1  UNL1        0.1235
      9 C         139.7705  145.9779  161.8583 C.3     1  UNL1        0.0972
     10 C         144.8519  142.9659  162.9110 C.3     1  UNL1        0.0528
     11 C         143.5815  143.7189  162.6478 C.ar    1  UNL1        0.0689
     12 N         143.0074  144.6141  163.7056 N.ar    1  UNL1       -0.2477
     13 C         141.7371  145.3671  163.4425 C.ar    1  UNL1        0.0955
     14 C         141.0408  145.2249  162.1214 C.ar    1  UNL1        0.0135
     15 C         141.6150  144.3297  161.0636 C.ar    1  UNL1        0.0101
     16 C         142.8853  143.5767  161.3268 C.ar    1  UNL1        0.0817
     17 C         143.4595  142.6815  160.2690 C.1     1  UNL1        0.1016
     18 N         144.0336  141.7864  159.2111 N.1     1  UNL1       -0.1908
     19 C         138.2277  140.1322  165.1290 C.3     1  UNL1        0.0970
     20 C         139.4899  139.5137  165.6526 C.3     1  UNL1        0.1264
     21 N         140.5795  140.3851  166.2038 N.ar    1  UNL1       -0.2927
     22 C         141.6850  140.8603  165.3083 C.ar    1  UNL1        0.2611
     23 O         141.7010  140.4643  163.8616 O.2     1  UNL1       -0.2670
     24 C         142.7745  141.7316  165.8595 C.ar    1  UNL1        0.0623
     25 C         142.7585  142.1276  167.3062 C.ar    1  UNL1        0.0236
     26 C         141.6530  141.6524  168.2017 C.ar    1  UNL1        0.0785
     27 C         140.5635  140.7811  167.6505 C.ar    1  UNL1        0.0785
     28 C         139.4579  140.3058  168.5460 C.ar    1  UNL1        0.0236
     29 C         139.4419  140.7019  169.9927 C.ar    1  UNL1        0.0623
     30 C         140.5314  141.5732  170.5439 C.ar    1  UNL1        0.2611
     31 O         140.5154  141.9693  171.9905 O.2     1  UNL1       -0.2670
     32 N         141.6369  142.0484  169.6484 N.ar    1  UNL1       -0.2922
     33 C         142.7264  142.9197  170.1995 C.3     1  UNL1        0.1336
@<TRIPOS>BOND
     1    10    11    1
     2    11    12   ar
     3    12    13   ar
     4    13    14   ar
     5    14     9    1
     6     9     7    1
     7     7     1    1
     8     1     2    1
     9     2     3    1
    10     3     4    1
    11     4    19    1
    12    19    20    1
    13    20    21    1
    14    21    22   ar
    15    22    23    2
    16    22    24   ar
    17    24    25   ar
    18    25    26   ar
    19    26    27   ar
    20    27    28   ar
    21    28    29   ar
    22    29    30   ar
    23    30    31    2
    24    30    32   ar
    25    32    33    1
    26     4     5    1
    27     5     6    1
    28    14    15   ar
    29    15    16   ar
    30    16    17    1
    31    17    18    3
    32    16    11   ar
    33     6     1    1
    34    27    21   ar
    35    32    26   ar
    36     7     8    1
@<TRIPOS>MOLECULE
*****
 33 36 0 0 0
SMALL
GASTEIGER

@<TRIPOS>ATOM
      1 C         141.4229  137.9962  164.5237 C.3     1  UNL1        0.0570
      2 C         141.7863  138.1921  163.0816 C.3     1  UNL1        0.0331
      3 C         140.7119  138.2273  162.0356 C.3     1  UNL1        0.0735
      4 N         139.2740  138.0667  162.4316 N.3     1  UNL1       -0.2710
      5 C         138.9106  137.8709  163.8736 C.3     1  UNL1        0.0735
      6 C         139.9851  137.8357  164.9197 C.3     1  UNL1        0.0331
      7 N         142.4974  137.9610  165.5698 N.3     1  UNL1       -0.2947
      8 H         142.0726  137.5807  166.4156 H       1  UNL1        0.1235
      9 C         143.1980  139.2260  165.9683 C.3     1  UNL1        0.0972
     10 C         140.3702  143.2762  169.3743 C.3     1  UNL1        0.0528
     11 C         141.0772  142.2636  168.5228 C.ar    1  UNL1        0.0689
     12 N         142.2256  142.6845  167.6545 N.ar    1  UNL1       -0.2477
     13 C         142.9325  141.6720  166.8030 C.ar    1  UNL1        0.0955
     14 C         142.4910  140.2385  166.8198 C.ar    1  UNL1        0.0135
     15 C         141.3426  139.8176  167.6881 C.ar    1  UNL1        0.0101
     16 C         140.6357  140.8302  168.5396 C.ar    1  UNL1        0.0817
     17 C         139.4873  140.4092  169.4079 C.1     1  UNL1        0.1016
     18 N         138.3389  139.9883  170.2762 N.1     1  UNL1       -0.1908
     19 C         138.1995  138.1020  161.3854 C.3     1  UNL1        0.0970
     20 C         137.3408  139.3223  161.2332 C.3     1  UNL1        0.1264
     21 N         137.9664  140.6417  160.8895 N.ar    1  UNL1       -0.2927
     22 C         138.4537  140.8999  159.4946 C.ar    1  UNL1        0.2611
     23 O         138.3154  139.8390  158.4433 O.2     1  UNL1       -0.2670
     24 C         139.0794  142.2192  159.1510 C.ar    1  UNL1        0.0623
     25 C         139.2177  143.2802  160.2023 C.ar    1  UNL1        0.0236
     26 C         138.7304  143.0219  161.5972 C.ar    1  UNL1        0.0785
     27 C         138.1048  141.7026  161.9408 C.ar    1  UNL1        0.0785
     28 C         137.6174  141.4443  163.3358 C.ar    1  UNL1        0.0236
     29 C         137.7557  142.5053  164.3871 C.ar    1  UNL1        0.0623
     30 C         138.3814  143.8246  164.0434 C.ar    1  UNL1        0.2611
     31 O         138.5197  144.8855  165.0947 O.2     1  UNL1       -0.2670
     32 N         138.8687  144.0829  162.6485 N.ar    1  UNL1       -0.2922
     33 C         139.4943  145.4021  162.3049 C.3     1  UNL1        0.1336
@<TRIPOS>BOND
     1    10    11    1
     2    11    12   ar
     3    12    13   ar
     4    13    14   ar
     5    14     9    1
     6     9     7    1
     7     7     1    1
     8     1     2    1
     9     2     3    1
    10     3     4    1
    11     4    19    1
    12    19    20    1
    13    20    21    1
    14    21    22   ar
    15    22    23    2
    16    22    24   ar
    17    24    25   ar
    18    25    26   ar
    19    26    27   ar
    20    27    28   ar
    21    28    29   ar
    22    29    30   ar
    23    30    31    2
    24    30    32   ar
    25    32    33    1
    26     4     5    1
    27     5     6    1
    28    14    15   ar
    29    15    16   ar
    30    16    17    1
    31    17    18    3
    32    16    11   ar
    33     6     1    1
    34    27    21   ar
    35    32    26   ar
    36     7     8    1
@<TRIPOS>MOLECULE
*****
 33 36 0 0 0
SMALL
GASTEIGER

@<TRIPOS>ATOM
      1 C         144.1987  139.8756  164.3696 C.3     1  UNL1        0.0570
      2 C         143.6413  139.0863  165.5169 C.3     1  UNL1        0.0331
      3 C         143.0814  139.7963  166.7137 C.3     1  UNL1        0.0735
      4 N         143.0789  141.2954  166.7633 N.3     1  UNL1       -0.2710
      5 C         143.6362  142.0847  165.6160 C.3     1  UNL1        0.0735
      6 C         144.1962  141.3748  164.4191 C.3     1  UNL1        0.0331
      7 N         144.7587  139.1657  163.1727 N.3     1  UNL1       -0.2947
      8 H         145.6970  139.5366  163.0227 H       1  UNL1        0.1235
      9 C         144.0470  139.2420  161.8545 C.3     1  UNL1        0.0972
     10 C         138.1676  138.0849  161.5482 C.3     1  UNL1        0.0528
     11 C         139.6375  138.3742  161.6248 C.ar    1  UNL1        0.0689
     12 N         140.5439  137.4555  162.3893 N.ar    1  UNL1       -0.2477
     13 C         142.0137  137.7448  162.4659 C.ar    1  UNL1        0.0955
     14 C         142.5772  138.9528  161.7779 C.ar    1  UNL1        0.0135
     15 C         141.6708  139.8714  161.0134 C.ar    1  UNL1        0.0101
     16 C         140.2010  139.5821  160.9368 C.ar    1  UNL1        0.0817
     17 C         139.2946  140.5008  160.1723 C.1     1  UNL1        0.1016
     18 N         138.3882  141.4195  159.4077 N.1     1  UNL1       -0.1908
     19 C         142.5189  142.0054  167.9602 C.3     1  UNL1        0.0970
     20 C         141.0517  142.3083  168.0340 C.3     1  UNL1        0.1264
     21 N         140.0861  141.5570  167.1660 N.ar    1  UNL1       -0.2927
     22 C         139.5985  140.2019  167.5852 C.ar    1  UNL1        0.2611
     23 O         140.0763  139.5979  168.8724 O.2     1  UNL1       -0.2670
     24 C         138.6329  139.4507  166.7172 C.ar    1  UNL1        0.0623
     25 C         138.1551  140.0546  165.4300 C.ar    1  UNL1        0.0236
     26 C         138.6427  141.4098  165.0108 C.ar    1  UNL1        0.0785
     27 C         139.6082  142.1609  165.8788 C.ar    1  UNL1        0.0785
     28 C         140.0959  143.5162  165.4596 C.ar    1  UNL1        0.0236
     29 C         139.6180  144.1201  164.1724 C.ar    1  UNL1        0.0623
     30 C         138.6525  143.3688  163.3044 C.ar    1  UNL1        0.2611
     31 O         138.1746  143.9728  162.0172 O.2     1  UNL1       -0.2670
     32 N         138.1648  142.0137  163.7236 N.ar    1  UNL1       -0.2922
     33 C         137.1993  141.2625  162.8556 C.3     1  UNL1        0.1336
@<TRIPOS>BOND
     1    10    11    1
     2    11    12   ar
     3    12    13   ar
     4    13    14   ar
     5    14     9    1
     6     9     7    1
     7     7     1    1
     8     1     2    1
     9     2     3    1
    10     3     4    1
    11     4    19    1
    12    19    20    1
    13    20    21    1
    14    21    22   ar
    15    22    23    2
    16    22    24   ar
    17    24    25   ar
    18    25    26   ar
    19    26    27   ar
    20    27    28   ar
    21    28    29   ar
    22    29    30   ar
    23    30    31    2
    24    30    32   ar
    25    32    33    1
    26     4     5    1
    27     5     6    1
    28    14    15   ar
    29    15    16   ar
    30    16    17    1
    31    17    18    3
    32    16    11   ar
    33     6     1    1
    34    27    21   ar
    35    32    26   ar
    36     7     8    1
@<TRIPOS>MOLECULE
*****
 33 36 0 0 0
SMALL
GASTEIGER

@<TRIPOS>ATOM
      1 C         144.2669  143.2301  162.6445 C.3     1  UNL1        0.0570
      2 C         143.7733  144.0367  163.8089 C.3     1  UNL1        0.0331
      3 C         142.5041  144.8270  163.6894 C.3     1  UNL1        0.0735
      4 N         141.7285  144.8108  162.4056 N.3     1  UNL1       -0.2710
      5 C         142.2221  144.0042  161.2413 C.3     1  UNL1        0.0735
      6 C         143.4913  143.2139  161.3607 C.3     1  UNL1        0.0331
      7 N         145.5363  142.4397  162.7640 N.3     1  UNL1       -0.2947
      8 H         145.7025  142.0102  161.8538 H       1  UNL1        0.1235
      9 C         145.6457  141.3464  163.7851 C.3     1  UNL1        0.0972
     10 C         141.0765  137.5468  164.6133 C.3     1  UNL1        0.0528
     11 C         142.2188  138.4967  164.4062 C.ar    1  UNL1        0.0689
     12 N         143.0939  138.3647  163.1951 N.ar    1  UNL1       -0.2477
     13 C         144.2362  139.3146  162.9881 C.ar    1  UNL1        0.0955
     14 C         144.5034  140.3965  163.9921 C.ar    1  UNL1        0.0135
     15 C         143.6283  140.5285  165.2032 C.ar    1  UNL1        0.0101
     16 C         142.4860  139.5786  165.4103 C.ar    1  UNL1        0.0817
     17 C         141.6109  139.7106  166.6214 C.1     1  UNL1        0.1016
     18 N         140.7358  139.8426  167.8325 N.1     1  UNL1       -0.1908
     19 C         140.4592  145.6012  162.2861 C.3     1  UNL1        0.0970
     20 C         139.1972  145.0936  162.9183 C.3     1  UNL1        0.1264
     21 N         139.0607  143.6386  163.2569 N.ar    1  UNL1       -0.2927
     22 C         139.1540  143.1889  164.6848 C.ar    1  UNL1        0.2611
     23 O         139.3840  144.1941  165.7742 O.2     1  UNL1       -0.2670
     24 C         139.0175  141.7341  165.0234 C.ar    1  UNL1        0.0623
     25 C         138.7875  140.7289  163.9340 C.ar    1  UNL1        0.0236
     26 C         138.6942  141.1786  162.5061 C.ar    1  UNL1        0.0785
     27 C         138.8307  142.6334  162.1676 C.ar    1  UNL1        0.0785
     28 C         138.7373  143.0832  160.7396 C.ar    1  UNL1        0.0236
     29 C         138.5074  142.0780  159.6502 C.ar    1  UNL1        0.0623
     30 C         138.3709  140.6230  159.9888 C.ar    1  UNL1        0.2611
     31 O         138.1409  139.6178  158.8995 O.2     1  UNL1       -0.2670
     32 N         138.4642  140.1734  161.4168 N.ar    1  UNL1       -0.2922
     33 C         138.3277  138.7185  161.7553 C.3     1  UNL1        0.1336
@<TRIPOS>BOND
     1    10    11    1
     2    11    12   ar
     3    12    13   ar
     4    13    14   ar
     5    14     9    1
     6     9     7    1
     7     7     1    1
     8     1     2    1
     9     2     3    1
    10     3     4    1
    11     4    19    1
    12    19    20    1
    13    20    21    1
    14    21    22   ar
    15    22    23    2
    16    22    24   ar
    17    24    25   ar
    18    25    26   ar
    19    26    27   ar
    20    27    28   ar
    21    28    29   ar
    22    29    30   ar
    23    30    31    2
    24    30    32   ar
    25    32    33    1
    26     4     5    1
    27     5     6    1
    28    14    15   ar
    29    15    16   ar
    30    16    17    1
    31    17    18    3
    32    16    11   ar
    33     6     1    1
    34    27    21   ar
    35    32    26   ar
    36     7     8    1
@<TRIPOS>MOLECULE
*****
 33 36 0 0 0
SMALL
GASTEIGER

@<TRIPOS>ATOM
      1 C         139.1558  137.8502  162.6978 C.3     1  UNL1        0.0570
      2 C         138.9478  138.0546  164.1692 C.3     1  UNL1        0.0331
      3 C         140.1299  138.1548  165.0870 C.3     1  UNL1        0.0735
      4 N         141.5202  138.0505  164.5335 N.3     1  UNL1       -0.2710
      5 C         141.7282  137.8461  163.0621 C.3     1  UNL1        0.0735
      6 C         140.5461  137.7460  162.1443 C.3     1  UNL1        0.0331
      7 N         137.9737  137.7501  161.7799 N.3     1  UNL1       -0.2947
      8 H         138.2395  137.1173  161.0254 H       1  UNL1        0.1235
      9 C         137.4189  138.9850  161.1341 C.3     1  UNL1        0.0972
     10 C         140.1653  144.2641  161.9016 C.3     1  UNL1        0.0528
     11 C         139.4787  142.9443  161.7097 C.ar    1  UNL1        0.0689
     12 N         139.8691  142.0549  160.5667 N.ar    1  UNL1       -0.2477
     13 C         139.1825  140.7352  160.3748 C.ar    1  UNL1        0.0955
     14 C         138.1054  140.3047  161.3260 C.ar    1  UNL1        0.0135
     15 C         137.7150  141.1941  162.4690 C.ar    1  UNL1        0.0101
     16 C         138.4016  142.5139  162.6609 C.ar    1  UNL1        0.0817
     17 C         138.0112  143.4033  163.8039 C.1     1  UNL1        0.1016
     18 N         137.6207  144.2927  164.9469 N.1     1  UNL1       -0.1908
     19 C         142.7024  138.1506  165.4514 C.3     1  UNL1        0.0970
     20 C         143.2898  139.4925  165.7741 C.3     1  UNL1        0.1264
     21 N         142.4056  140.5993  166.2675 N.ar    1  UNL1       -0.2927
     22 C         141.8929  141.6333  165.3094 C.ar    1  UNL1        0.2611
     23 O         142.2642  141.5606  163.8579 O.2     1  UNL1       -0.2670
     24 C         141.0087  142.7400  165.8028 C.ar    1  UNL1        0.0623
     25 C         140.6374  142.8127  167.2543 C.ar    1  UNL1        0.0236
     26 C         141.1501  141.7787  168.2124 C.ar    1  UNL1        0.0785
     27 C         142.0342  140.6720  167.7189 C.ar    1  UNL1        0.0785
     28 C         142.5470  139.6380  168.6770 C.ar    1  UNL1        0.0236
     29 C         142.1756  139.7107  170.1285 C.ar    1  UNL1        0.0623
     30 C         141.2915  140.8175  170.6219 C.ar    1  UNL1        0.2611
     31 O         140.9201  140.8902  172.0734 O.2     1  UNL1       -0.2670
     32 N         140.7787  141.8514  169.6638 N.ar    1  UNL1       -0.2922
     33 C         139.8946  142.9581  170.1573 C.3     1  UNL1        0.1336
@<TRIPOS>BOND
     1    10    11    1
     2    11    12   ar
     3    12    13   ar
     4    13    14   ar
     5    14     9    1
     6     9     7    1
     7     7     1    1
     8     1     2    1
     9     2     3    1
    10     3     4    1
    11     4    19    1
    12    19    20    1
    13    20    21    1
    14    21    22   ar
    15    22    23    2
    16    22    24   ar
    17    24    25   ar
    18    25    26   ar
    19    26    27   ar
    20    27    28   ar
    21    28    29   ar
    22    29    30   ar
    23    30    31    2
    24    30    32   ar
    25    32    33    1
    26     4     5    1
    27     5     6    1
    28    14    15   ar
    29    15    16   ar
    30    16    17    1
    31    17    18    3
    32    16    11   ar
    33     6     1    1
    34    27    21   ar
    35    32    26   ar
    36     7     8    1
@<TRIPOS>MOLECULE
*****
 33 36 0 0 0
SMALL
GASTEIGER

@<TRIPOS>ATOM
      1 C         137.6607  140.6984  161.6058 C.3     1  UNL1        0.0570
      2 C         138.3318  141.5270  160.5508 C.3     1  UNL1        0.0331
      3 C         138.8018  142.9145  160.8732 C.3     1  UNL1        0.0735
      4 N         138.6006  143.4734  162.2506 N.3     1  UNL1       -0.2710
      5 C         137.9294  142.6448  163.3056 C.3     1  UNL1        0.0735
      6 C         137.4595  141.2573  162.9832 C.3     1  UNL1        0.0331
      7 N         137.1907  139.3109  161.2834 N.3     1  UNL1       -0.2947
      8 H         136.2295  139.2405  161.6174 H       1  UNL1        0.1235
      9 C         137.9270  138.1237  161.8299 C.3     1  UNL1        0.0972
     10 C         143.9230  137.9765  161.6663 C.3     1  UNL1        0.0528
     11 C         142.4239  138.0134  161.7072 C.ar    1  UNL1        0.0689
     12 N         141.7029  137.7762  163.0010 N.ar    1  UNL1       -0.2477
     13 C         140.2039  137.8130  163.0419 C.ar    1  UNL1        0.0955
     14 C         139.4259  138.0869  161.7890 C.ar    1  UNL1        0.0135
     15 C         140.1469  138.3241  160.4952 C.ar    1  UNL1        0.0101
     16 C         141.6460  138.2873  160.4543 C.ar    1  UNL1        0.0817
     17 C         142.3670  138.5245  159.1605 C.1     1  UNL1        0.1016
     18 N         143.0880  138.7617  157.8667 N.1     1  UNL1       -0.1908
     19 C         139.0705  144.8610  162.5729 C.3     1  UNL1        0.0970
     20 C         140.4667  145.0823  163.0747 C.3     1  UNL1        0.1264
     21 N         141.5068  144.0170  162.8926 N.ar    1  UNL1       -0.2927
     22 C         142.2494  143.9079  161.5939 C.ar    1  UNL1        0.2611
     23 O         141.9518  144.8641  160.4772 O.2     1  UNL1       -0.2670
     24 C         143.2895  142.8425  161.4119 C.ar    1  UNL1        0.0623
     25 C         143.5871  141.8863  162.5286 C.ar    1  UNL1        0.0236
     26 C         142.8445  141.9954  163.8273 C.ar    1  UNL1        0.0785
     27 C         141.8044  143.0607  164.0093 C.ar    1  UNL1        0.0785
     28 C         141.0619  143.1698  165.3081 C.ar    1  UNL1        0.0236
     29 C         141.3594  142.2136  166.4248 C.ar    1  UNL1        0.0623
     30 C         142.3996  141.1482  166.2427 C.ar    1  UNL1        0.2611
     31 O         142.6972  140.1919  167.3594 O.2     1  UNL1       -0.2670
     32 N         143.1421  141.0391  164.9440 N.ar    1  UNL1       -0.2922
     33 C         144.1823  139.9738  164.7620 C.3     1  UNL1        0.1336
@<TRIPOS>BOND
     1    10    11    1
     2    11    12   ar
     3    12    13   ar
     4    13    14   ar
     5    14     9    1
     6     9     7    1
     7     7     1    1
     8     1     2    1
     9     2     3    1
    10     3     4    1
    11     4    19    1
    12    19    20    1
    13    20    21    1
    14    21    22   ar
    15    22    23    2
    16    22    24   ar
    17    24    25   ar
    18    25    26   ar
    19    26    27   ar
    20    27    28   ar
    21    28    29   ar
    22    29    30   ar
    23    30    31    2
    24    30    32   ar
    25    32    33    1
    26     4     5    1
    27     5     6    1
    28    14    15   ar
    29    15    16   ar
    30    16    17    1
    31    17    18    3
    32    16    11   ar
    33     6     1    1
    34    27    21   ar
    35    32    26   ar
    36     7     8    1
@<TRIPOS>MOLECULE
*****
 33 36 0 0 0
SMALL
GASTEIGER

@<TRIPOS>ATOM
      1 C         138.6454  139.8477  162.0546 C.3     1  UNL1        0.0570
      2 C         139.8687  139.7563  161.1914 C.3     1  UNL1        0.0331
      3 C         140.2351  140.8955  160.2869 C.3     1  UNL1        0.0735
      4 N         139.3783  142.1260  160.2457 N.3     1  UNL1       -0.2710
      5 C         138.1551  142.2174  161.1089 C.3     1  UNL1        0.0735
      6 C         137.7886  141.0783  162.0134 C.3     1  UNL1        0.0331
      7 N         138.2789  138.7086  162.9591 N.3     1  UNL1       -0.2947
      8 H         137.4527  139.0010  163.4809 H       1  UNL1        0.1235
      9 C         139.2691  138.2011  163.9650 C.3     1  UNL1        0.0972
     10 C         139.3116  140.4463  169.5290 C.3     1  UNL1        0.0528
     11 C         139.3010  139.8850  168.1380 C.ar    1  UNL1        0.0689
     12 N         138.1624  139.0186  167.6875 N.ar    1  UNL1       -0.2477
     13 C         138.1518  138.4573  166.2966 C.ar    1  UNL1        0.0955
     14 C         139.2797  138.7624  165.3560 C.ar    1  UNL1        0.0135
     15 C         140.4183  139.6289  165.8064 C.ar    1  UNL1        0.0101
     16 C         140.4289  140.1902  167.1975 C.ar    1  UNL1        0.0817
     17 C         141.5675  141.0567  167.6479 C.1     1  UNL1        0.1016
     18 N         142.7061  141.9231  168.0984 N.1     1  UNL1       -0.1908
     19 C         139.7449  143.2651  159.3412 C.3     1  UNL1        0.0970
     20 C         140.7824  144.2597  159.7704 C.3     1  UNL1        0.1264
     21 N         141.1753  144.3576  161.2148 N.ar    1  UNL1       -0.2927
     22 C         140.3098  145.1147  162.1779 C.ar    1  UNL1        0.2611
     23 O         139.0513  145.7739  161.6967 O.2     1  UNL1       -0.2670
     24 C         140.7028  145.2125  163.6221 C.ar    1  UNL1        0.0623
     25 C         141.9613  144.5533  164.1033 C.ar    1  UNL1        0.0236
     26 C         142.8269  143.7963  163.1402 C.ar    1  UNL1        0.0785
     27 C         142.4339  143.6984  161.6959 C.ar    1  UNL1        0.0785
     28 C         143.2994  142.9413  160.7327 C.ar    1  UNL1        0.0236
     29 C         144.5580  142.2821  161.2139 C.ar    1  UNL1        0.0623
     30 C         144.9510  142.3800  162.6582 C.ar    1  UNL1        0.2611
     31 O         146.2095  141.7207  163.1394 O.2     1  UNL1       -0.2670
     32 N         144.0854  143.1370  163.6213 N.ar    1  UNL1       -0.2922
     33 C         144.4784  143.2349  165.0656 C.3     1  UNL1        0.1336
@<TRIPOS>BOND
     1    10    11    1
     2    11    12   ar
     3    12    13   ar
     4    13    14   ar
     5    14     9    1
     6     9     7    1
     7     7     1    1
     8     1     2    1
     9     2     3    1
    10     3     4    1
    11     4    19    1
    12    19    20    1
    13    20    21    1
    14    21    22   ar
    15    22    23    2
    16    22    24   ar
    17    24    25   ar
    18    25    26   ar
    19    26    27   ar
    20    27    28   ar
    21    28    29   ar
    22    29    30   ar
    23    30    31    2
    24    30    32   ar
    25    32    33    1
    26     4     5    1
    27     5     6    1
    28    14    15   ar
    29    15    16   ar
    30    16    17    1
    31    17    18    3
    32    16    11   ar
    33     6     1    1
    34    27    21   ar
    35    32    26   ar
    36     7     8    1
