@<TRIPOS>MOLECULE
*****
 34 37 0 0 0
SMALL
GASTEIGER

@<TRIPOS>ATOM
      1 C         142.5809  139.8999  166.1345 C.ar    1  UNL1        0.0360
      2 C         143.5932  138.7933  166.1074 C.ar    1  UNL1        0.0031
      3 C         144.6972  138.8115  165.0921 C.ar    1  UNL1        0.0002
      4 C         144.7890  139.9363  164.1040 C.ar    1  UNL1        0.0045
      5 C         143.7768  141.0429  164.1312 C.ar    1  UNL1        0.0535
      6 C         142.6727  141.0247  165.1464 C.ar    1  UNL1        0.0076
      7 N         140.0219  139.6522  166.8661 N.ar    1  UNL1       -0.2111
      8 N         139.2798  139.7185  168.1680 N.ar    1  UNL1       -0.1488
      9 C         140.2760  139.9889  169.2562 C.ar    1  UNL1        0.1612
     10 C         139.9684  140.1331  170.7173 C.3     1  UNL1        0.0756
     11 N         141.6339  140.0898  168.6270 N.ar    1  UNL1       -0.2101
     12 C         141.4768  139.8817  167.1498 C.ar    1  UNL1        0.1651
     13 C         138.2028  138.8976  162.8199 C.ar    1  UNL1        0.1388
     14 C         138.8908  137.7840  163.5524 C.ar    1  UNL1        0.0384
     15 C         139.4971  138.0356  164.9012 C.ar    1  UNL1        0.0223
     16 C         139.4155  139.4007  165.5174 C.ar    1  UNL1        0.0847
     17 C         138.7275  140.5142  164.7849 C.ar    1  UNL1        0.0223
     18 C         138.1212  140.2627  163.4361 C.ar    1  UNL1        0.0384
     19 C         137.4125  139.7811  160.5081 C.3     1  UNL1        0.2525
     20 O         137.5964  138.6460  161.4712 O.3     1  UNL1       -0.4714
     21 C         143.8686  142.1677  163.1431 C.2     1  UNL1        0.2458
     22 O         144.4605  143.4826  163.5562 O.2     1  UNL1       -0.2701
     23 N         143.3683  141.9777  161.7418 N.am    1  UNL1       -0.3009
     24 H         142.9798  141.1148  161.4706 H       1  UNL1        0.1497
     25 C         143.4601  143.1026  160.7537 C.3     1  UNL1        0.0897
     26 C         142.2924  143.4191  159.8670 C.3     1  UNL1        0.0216
     27 C         141.1360  144.2096  160.4033 C.3     1  UNL1        0.0064
     28 C         139.9616  143.5019  161.0116 C.3     1  UNL1        0.0264
     29 C         139.6040  143.7409  162.4486 C.ar    1  UNL1       -0.0222
     30 C         138.1713  143.9510  162.8401 C.ar    1  UNL1       -0.0043
     31 C         137.8138  144.1900  164.2771 C.ar    1  UNL1       -0.0003
     32 C         138.8889  144.2189  165.3227 C.ar    1  UNL1       -0.0000
     33 C         140.3216  144.0088  164.9313 C.ar    1  UNL1       -0.0003
     34 C         140.6792  143.7698  163.4943 C.ar    1  UNL1       -0.0043
@<TRIPOS>BOND
     1    19    20    1
     2    20    13    1
     3    13    14   ar
     4    14    15   ar
     5    15    16   ar
     6    16     7    1
     7     7     8   ar
     8     8     9   ar
     9     9    10    1
    10     9    11   ar
    11    11    12   ar
    12    12     1    1
    13     1     2   ar
    14     2     3   ar
    15     3     4   ar
    16     4     5   ar
    17     5    21    1
    18    21    22    2
    19    21    23   am
    20    23    25    1
    21    25    26    1
    22    26    27    1
    23    27    28    1
    24    28    29    1
    25    29    30   ar
    26    30    31   ar
    27    31    32   ar
    28    32    33   ar
    29    33    34   ar
    30     5     6   ar
    31    16    17   ar
    32    17    18   ar
    33    18    13   ar
    34    12     7   ar
    35     6     1   ar
    36    34    29   ar
    37    23    24    1
@<TRIPOS>MOLECULE
*****
 34 37 0 0 0
SMALL
GASTEIGER

@<TRIPOS>ATOM
      1 C         139.8555  139.9552  166.8202 C.ar    1  UNL1        0.0360
      2 C         138.5854  139.2240  167.1402 C.ar    1  UNL1        0.0031
      3 C         138.0673  138.1746  166.2019 C.ar    1  UNL1        0.0002
      4 C         138.8192  137.8564  164.9436 C.ar    1  UNL1        0.0045
      5 C         140.0893  138.5876  164.6236 C.ar    1  UNL1        0.0535
      6 C         140.6073  139.6369  165.5619 C.ar    1  UNL1        0.0076
      7 N         140.4827  142.4719  167.4667 N.ar    1  UNL1       -0.2111
      8 N         141.0501  143.1450  168.6812 N.ar    1  UNL1       -0.1488
      9 C         141.2915  142.0937  169.7236 C.ar    1  UNL1        0.1612
     10 C         141.8526  142.3248  171.0953 C.3     1  UNL1        0.0756
     11 N         140.8734  140.7709  169.1533 N.ar    1  UNL1       -0.2101
     12 C         140.3736  141.0046  167.7585 C.ar    1  UNL1        0.1651
     13 C         139.3135  144.4985  163.6228 C.ar    1  UNL1        0.1388
     14 C         138.5147  144.7373  164.8697 C.ar    1  UNL1        0.0384
     15 C         138.9044  144.0618  166.1510 C.ar    1  UNL1        0.0223
     16 C         140.0930  143.1474  166.1854 C.ar    1  UNL1        0.0847
     17 C         140.8918  142.9086  164.9385 C.ar    1  UNL1        0.0223
     18 C         140.5020  143.5842  163.6572 C.ar    1  UNL1        0.0384
     19 C         139.8107  146.2292  161.7500 C.3     1  UNL1        0.2525
     20 O         138.9237  145.1740  162.3415 O.3     1  UNL1       -0.4714
     21 C         140.8412  138.2693  163.3654 C.2     1  UNL1        0.2458
     22 O         141.0881  136.8409  162.9800 O.2     1  UNL1       -0.2701
     23 N         141.3463  139.3796  162.4923 N.am    1  UNL1       -0.3009
     24 H         141.1843  140.3172  162.7452 H       1  UNL1        0.1497
     25 C         142.0983  139.0614  161.2340 C.3     1  UNL1        0.0897
     26 C         143.5720  139.3289  161.1530 C.3     1  UNL1        0.0216
     27 C         144.2668  140.0459  162.2724 C.3     1  UNL1        0.0064
     28 C         144.9209  141.3723  162.0217 C.3     1  UNL1        0.0264
     29 C         144.6226  142.5371  162.9186 C.ar    1  UNL1       -0.0222
     30 C         144.8537  142.4242  164.3964 C.ar    1  UNL1       -0.0043
     31 C         144.5553  143.5890  165.2932 C.ar    1  UNL1       -0.0003
     32 C         144.0259  144.8666  164.7124 C.ar    1  UNL1       -0.0000
     33 C         143.7948  144.9794  163.2346 C.ar    1  UNL1       -0.0003
     34 C         144.0931  143.8147  162.3377 C.ar    1  UNL1       -0.0043
@<TRIPOS>BOND
     1    19    20    1
     2    20    13    1
     3    13    14   ar
     4    14    15   ar
     5    15    16   ar
     6    16     7    1
     7     7     8   ar
     8     8     9   ar
     9     9    10    1
    10     9    11   ar
    11    11    12   ar
    12    12     1    1
    13     1     2   ar
    14     2     3   ar
    15     3     4   ar
    16     4     5   ar
    17     5    21    1
    18    21    22    2
    19    21    23   am
    20    23    25    1
    21    25    26    1
    22    26    27    1
    23    27    28    1
    24    28    29    1
    25    29    30   ar
    26    30    31   ar
    27    31    32   ar
    28    32    33   ar
    29    33    34   ar
    30     5     6   ar
    31    16    17   ar
    32    17    18   ar
    33    18    13   ar
    34    12     7   ar
    35     6     1   ar
    36    34    29   ar
    37    23    24    1
@<TRIPOS>MOLECULE
*****
 34 37 0 0 0
SMALL
GASTEIGER

@<TRIPOS>ATOM
      1 C         139.9927  139.7312  166.7292 C.ar    1  UNL1        0.0360
      2 C         138.6101  139.1494  166.7115 C.ar    1  UNL1        0.0031
      3 C         138.2142  138.1893  165.6292 C.ar    1  UNL1        0.0002
      4 C         139.2008  137.8109  164.5645 C.ar    1  UNL1        0.0045
      5 C         140.5833  138.3926  164.5822 C.ar    1  UNL1        0.0535
      6 C         140.9792  139.3527  165.6645 C.ar    1  UNL1        0.0076
      7 N         140.7429  142.1365  167.6218 N.ar    1  UNL1       -0.2111
      8 N         141.0729  142.7131  168.9666 N.ar    1  UNL1       -0.1488
      9 C         140.9226  141.6243  169.9874 C.ar    1  UNL1        0.1612
     10 C         141.1546  141.7612  171.4631 C.3     1  UNL1        0.0756
     11 N         140.4997  140.3748  169.2735 N.ar    1  UNL1       -0.2101
     12 C         140.3886  140.6913  167.8115 C.ar    1  UNL1        0.1651
     13 C         140.8046  144.3528  163.7060 C.ar    1  UNL1        0.1388
     14 C         141.9924  143.5386  164.1257 C.ar    1  UNL1        0.0384
     15 C         141.9718  142.7998  165.4310 C.ar    1  UNL1        0.0223
     16 C         140.7635  142.8753  166.3165 C.ar    1  UNL1        0.0847
     17 C         139.5757  143.6895  165.8968 C.ar    1  UNL1        0.0223
     18 C         139.5963  144.4283  164.5915 C.ar    1  UNL1        0.0384
     19 C         139.5993  145.8161  161.9295 C.3     1  UNL1        0.2525
     20 O         140.8252  145.0916  162.4007 O.3     1  UNL1       -0.4714
     21 C         141.5698  138.0142  163.5176 C.2     1  UNL1        0.2458
     22 O         141.2618  136.8883  162.5756 O.2     1  UNL1       -0.2701
     23 N         142.8645  138.7618  163.3949 N.am    1  UNL1       -0.3009
     24 H         143.0667  139.5008  164.0131 H       1  UNL1        0.1497
     25 C         143.8511  138.3834  162.3303 C.3     1  UNL1        0.0897
     26 C         143.6477  138.8499  160.9192 C.3     1  UNL1        0.0216
     27 C         142.7386  140.0090  160.6362 C.3     1  UNL1        0.0064
     28 C         141.3667  139.7677  160.0799 C.3     1  UNL1        0.0264
     29 C         140.1586  139.9898  160.9408 C.ar    1  UNL1       -0.0222
     30 C         140.1701  141.0654  161.9863 C.ar    1  UNL1       -0.0043
     31 C         138.9620  141.2875  162.8471 C.ar    1  UNL1       -0.0003
     32 C         137.7423  140.4342  162.6626 C.ar    1  UNL1       -0.0000
     33 C         137.7308  139.3586  161.6171 C.ar    1  UNL1       -0.0003
     34 C         138.9388  139.1365  160.7562 C.ar    1  UNL1       -0.0043
@<TRIPOS>BOND
     1    19    20    1
     2    20    13    1
     3    13    14   ar
     4    14    15   ar
     5    15    16   ar
     6    16     7    1
     7     7     8   ar
     8     8     9   ar
     9     9    10    1
    10     9    11   ar
    11    11    12   ar
    12    12     1    1
    13     1     2   ar
    14     2     3   ar
    15     3     4   ar
    16     4     5   ar
    17     5    21    1
    18    21    22    2
    19    21    23   am
    20    23    25    1
    21    25    26    1
    22    26    27    1
    23    27    28    1
    24    28    29    1
    25    29    30   ar
    26    30    31   ar
    27    31    32   ar
    28    32    33   ar
    29    33    34   ar
    30     5     6   ar
    31    16    17   ar
    32    17    18   ar
    33    18    13   ar
    34    12     7   ar
    35     6     1   ar
    36    34    29   ar
    37    23    24    1
@<TRIPOS>MOLECULE
*****
 34 37 0 0 0
SMALL
GASTEIGER

@<TRIPOS>ATOM
      1 C         139.9089  143.1004  165.6384 C.ar    1  UNL1        0.0360
      2 C         139.0703  144.3428  165.6972 C.ar    1  UNL1        0.0031
      3 C         138.0343  144.5989  164.6431 C.ar    1  UNL1        0.0002
      4 C         137.8369  143.6127  163.5302 C.ar    1  UNL1        0.0045
      5 C         138.6755  142.3704  163.4715 C.ar    1  UNL1        0.0535
      6 C         139.7115  142.1143  164.5256 C.ar    1  UNL1        0.0076
      7 N         142.4083  142.6172  166.4538 N.ar    1  UNL1       -0.2111
      8 N         143.0671  142.4028  167.7842 N.ar    1  UNL1       -0.1488
      9 C         142.0110  142.4975  168.8452 C.ar    1  UNL1        0.1612
     10 C         142.2283  142.3459  170.3216 C.3     1  UNL1        0.0756
     11 N         140.6994  142.7703  168.1705 N.ar    1  UNL1       -0.2101
     12 C         140.9449  142.8443  166.6926 C.ar    1  UNL1        0.1651
     13 C         144.4613  142.5847  162.4496 C.ar    1  UNL1        0.1388
     14 C         144.1730  141.2928  163.1551 C.ar    1  UNL1        0.0384
     15 C         143.4886  141.3036  164.4898 C.ar    1  UNL1        0.0223
     16 C         143.0926  142.6064  165.1191 C.ar    1  UNL1        0.0847
     17 C         143.3809  143.8983  164.4136 C.ar    1  UNL1        0.0223
     18 C         144.0653  143.8874  163.0788 C.ar    1  UNL1        0.0384
     19 C         144.3356  142.4596  159.8576 C.3     1  UNL1        0.2525
     20 O         145.1456  142.5739  161.1148 O.3     1  UNL1       -0.4714
     21 C         138.4781  141.3843  162.3586 C.2     1  UNL1        0.2458
     22 O         138.8064  141.7708  160.9469 O.2     1  UNL1       -0.2701
     23 N         137.9525  140.0115  162.6574 N.am    1  UNL1       -0.3009
     24 H         137.7370  139.7578  163.5839 H       1  UNL1        0.1497
     25 C         137.7551  139.0254  161.5445 C.3     1  UNL1        0.0897
     26 C         138.8015  137.9868  161.2683 C.3     1  UNL1        0.0216
     27 C         140.0824  137.9865  162.0490 C.3     1  UNL1        0.0064
     28 C         140.1622  137.2598  163.3588 C.3     1  UNL1        0.0264
     29 C         139.9506  138.0044  164.6436 C.ar    1  UNL1       -0.0222
     30 C         141.1084  138.6759  165.3208 C.ar    1  UNL1       -0.0043
     31 C         140.8967  139.4205  166.6056 C.ar    1  UNL1       -0.0003
     32 C         139.5274  139.4936  167.2133 C.ar    1  UNL1       -0.0000
     33 C         138.3695  138.8221  166.5362 C.ar    1  UNL1       -0.0003
     34 C         138.5811  138.0775  165.2514 C.ar    1  UNL1       -0.0043
@<TRIPOS>BOND
     1    19    20    1
     2    20    13    1
     3    13    14   ar
     4    14    15   ar
     5    15    16   ar
     6    16     7    1
     7     7     8   ar
     8     8     9   ar
     9     9    10    1
    10     9    11   ar
    11    11    12   ar
    12    12     1    1
    13     1     2   ar
    14     2     3   ar
    15     3     4   ar
    16     4     5   ar
    17     5    21    1
    18    21    22    2
    19    21    23   am
    20    23    25    1
    21    25    26    1
    22    26    27    1
    23    27    28    1
    24    28    29    1
    25    29    30   ar
    26    30    31   ar
    27    31    32   ar
    28    32    33   ar
    29    33    34   ar
    30     5     6   ar
    31    16    17   ar
    32    17    18   ar
    33    18    13   ar
    34    12     7   ar
    35     6     1   ar
    36    34    29   ar
    37    23    24    1
@<TRIPOS>MOLECULE
*****
 34 37 0 0 0
SMALL
GASTEIGER

@<TRIPOS>ATOM
      1 C         142.5440  140.9959  165.1167 C.ar    1  UNL1        0.0360
      2 C         144.0355  141.1429  165.0535 C.ar    1  UNL1        0.0031
      3 C         144.7969  140.5720  163.8940 C.ar    1  UNL1        0.0002
      4 C         144.0669  139.8541  162.7978 C.ar    1  UNL1        0.0045
      5 C         142.5755  139.7071  162.8610 C.ar    1  UNL1        0.0535
      6 C         141.8141  140.2780  164.0205 C.ar    1  UNL1        0.0076
      7 N         140.8771  142.7619  166.2337 N.ar    1  UNL1       -0.2111
      8 N         140.3279  142.9764  167.6130 N.ar    1  UNL1       -0.1488
      9 C         140.8940  141.9139  168.5078 C.ar    1  UNL1        0.1612
     10 C         140.6107  141.7513  169.9718 C.3     1  UNL1        0.0756
     11 N         141.7930  141.0427  167.6816 N.ar    1  UNL1       -0.2101
     12 C         141.7826  141.5667  166.2762 C.ar    1  UNL1        0.1651
     13 C         139.9680  145.2641  162.6058 C.ar    1  UNL1        0.1388
     14 C         138.8474  144.6840  163.4168 C.ar    1  UNL1        0.0384
     15 C         139.1504  143.8499  164.6261 C.ar    1  UNL1        0.0223
     16 C         140.5741  143.5959  165.0244 C.ar    1  UNL1        0.0847
     17 C         141.6946  144.1760  164.2134 C.ar    1  UNL1        0.0223
     18 C         141.3916  145.0101  163.0041 C.ar    1  UNL1        0.0384
     19 C         140.1738  145.6786  160.0493 C.3     1  UNL1        0.2525
     20 O         139.6649  146.0982  161.3965 O.3     1  UNL1       -0.4714
     21 C         141.8455  138.9893  161.7648 C.2     1  UNL1        0.2458
     22 O         141.6329  137.5069  161.8508 O.2     1  UNL1       -0.2701
     23 N         141.3280  139.7537  160.5825 N.am    1  UNL1       -0.3009
     24 H         141.4675  140.7267  160.5261 H       1  UNL1        0.1497
     25 C         140.5979  139.0359  159.4863 C.3     1  UNL1        0.0897
     26 C         139.1199  139.2286  159.3181 C.3     1  UNL1        0.0216
     27 C         138.2408  139.3767  160.5244 C.3     1  UNL1        0.0064
     28 C         138.2557  138.3278  161.5966 C.3     1  UNL1        0.0264
     29 C         138.3924  138.7282  163.0356 C.ar    1  UNL1       -0.0222
     30 C         138.8755  137.7329  164.0485 C.ar    1  UNL1       -0.0043
     31 C         139.0122  138.1333  165.4876 C.ar    1  UNL1       -0.0003
     32 C         138.6657  139.5291  165.9139 C.ar    1  UNL1       -0.0000
     33 C         138.1826  140.5244  164.9010 C.ar    1  UNL1       -0.0003
     34 C         138.0459  140.1241  163.4620 C.ar    1  UNL1       -0.0043
@<TRIPOS>BOND
     1    19    20    1
     2    20    13    1
     3    13    14   ar
     4    14    15   ar
     5    15    16   ar
     6    16     7    1
     7     7     8   ar
     8     8     9   ar
     9     9    10    1
    10     9    11   ar
    11    11    12   ar
    12    12     1    1
    13     1     2   ar
    14     2     3   ar
    15     3     4   ar
    16     4     5   ar
    17     5    21    1
    18    21    22    2
    19    21    23   am
    20    23    25    1
    21    25    26    1
    22    26    27    1
    23    27    28    1
    24    28    29    1
    25    29    30   ar
    26    30    31   ar
    27    31    32   ar
    28    32    33   ar
    29    33    34   ar
    30     5     6   ar
    31    16    17   ar
    32    17    18   ar
    33    18    13   ar
    34    12     7   ar
    35     6     1   ar
    36    34    29   ar
    37    23    24    1
@<TRIPOS>MOLECULE
*****
 34 37 0 0 0
SMALL
GASTEIGER

@<TRIPOS>ATOM
      1 C         139.5723  139.9336  166.1595 C.ar    1  UNL1        0.0360
      2 C         138.5713  138.8643  166.4830 C.ar    1  UNL1        0.0031
      3 C         138.3122  137.7584  165.5032 C.ar    1  UNL1        0.0002
      4 C         139.0540  137.7218  164.2000 C.ar    1  UNL1        0.0045
      5 C         140.0549  138.7911  163.8766 C.ar    1  UNL1        0.0535
      6 C         140.3141  139.8970  164.8563 C.ar    1  UNL1        0.0076
      7 N         139.9051  142.5028  166.8179 N.ar    1  UNL1       -0.2111
      8 N         140.1817  143.2438  168.0924 N.ar    1  UNL1       -0.1488
      9 C         140.2789  142.2385  169.2014 C.ar    1  UNL1        0.1612
     10 C         140.5457  142.5423  170.6459 C.3     1  UNL1        0.0756
     11 N         140.0625  140.8761  168.6123 N.ar    1  UNL1       -0.2101
     12 C         139.8315  141.0395  167.1392 C.ar    1  UNL1        0.1651
     13 C         139.3874  144.3460  162.7455 C.ar    1  UNL1        0.1388
     14 C         140.7362  144.3437  163.4017 C.ar    1  UNL1        0.0384
     15 C         140.9088  143.7293  164.7592 C.ar    1  UNL1        0.0223
     16 C         139.7326  143.1172  165.4604 C.ar    1  UNL1        0.0847
     17 C         138.3838  143.1196  164.8042 C.ar    1  UNL1        0.0223
     18 C         138.2112  143.7340  163.4467 C.ar    1  UNL1        0.0384
     19 C         140.4172  145.3919  160.6017 C.3     1  UNL1        0.2525
     20 O         139.2149  144.9604  161.3880 O.3     1  UNL1       -0.4714
     21 C         140.7968  138.7545  162.5734 C.2     1  UNL1        0.2458
     22 O         141.1531  137.4377  161.9499 O.2     1  UNL1       -0.2701
     23 N         141.1823  140.0349  161.8936 N.am    1  UNL1       -0.3009
     24 H         140.9484  140.8993  162.3028 H       1  UNL1        0.1497
     25 C         141.9241  139.9983  160.5904 C.3     1  UNL1        0.0897
     26 C         143.4126  140.1826  160.5692 C.3     1  UNL1        0.0216
     27 C         144.2442  139.7023  161.7215 C.3     1  UNL1        0.0064
     28 C         144.5470  140.6258  162.8641 C.3     1  UNL1        0.0264
     29 C         144.0722  140.2892  164.2466 C.ar    1  UNL1       -0.0222
     30 C         143.9423  138.8551  164.6666 C.ar    1  UNL1       -0.0043
     31 C         143.4674  138.5185  166.0490 C.ar    1  UNL1       -0.0003
     32 C         143.1224  139.6160  167.0115 C.ar    1  UNL1       -0.0000
     33 C         143.2522  141.0501  166.5915 C.ar    1  UNL1       -0.0003
     34 C         143.7271  141.3868  165.2092 C.ar    1  UNL1       -0.0043
@<TRIPOS>BOND
     1    19    20    1
     2    20    13    1
     3    13    14   ar
     4    14    15   ar
     5    15    16   ar
     6    16     7    1
     7     7     8   ar
     8     8     9   ar
     9     9    10    1
    10     9    11   ar
    11    11    12   ar
    12    12     1    1
    13     1     2   ar
    14     2     3   ar
    15     3     4   ar
    16     4     5   ar
    17     5    21    1
    18    21    22    2
    19    21    23   am
    20    23    25    1
    21    25    26    1
    22    26    27    1
    23    27    28    1
    24    28    29    1
    25    29    30   ar
    26    30    31   ar
    27    31    32   ar
    28    32    33   ar
    29    33    34   ar
    30     5     6   ar
    31    16    17   ar
    32    17    18   ar
    33    18    13   ar
    34    12     7   ar
    35     6     1   ar
    36    34    29   ar
    37    23    24    1
@<TRIPOS>MOLECULE
*****
 34 37 0 0 0
SMALL
GASTEIGER

@<TRIPOS>ATOM
      1 C         141.3843  141.0711  165.2645 C.ar    1  UNL1        0.0360
      2 C         142.3233  141.3690  166.3958 C.ar    1  UNL1        0.0031
      3 C         143.4016  142.3976  166.2245 C.ar    1  UNL1        0.0002
      4 C         143.5410  143.1282  164.9219 C.ar    1  UNL1        0.0045
      5 C         142.6021  142.8303  163.7907 C.ar    1  UNL1        0.0535
      6 C         141.5238  141.8018  163.9620 C.ar    1  UNL1        0.0076
      7 N         139.9722  138.9456  164.4687 N.ar    1  UNL1       -0.2111
      8 N         138.8321  138.1555  165.0395 N.ar    1  UNL1       -0.1488
      9 C         138.4613  138.7641  166.3595 C.ar    1  UNL1        0.1612
     10 C         137.3711  138.2897  167.2739 C.3     1  UNL1        0.0756
     11 N         139.3723  139.9303  166.6044 N.ar    1  UNL1       -0.2101
     12 C         140.3060  140.0425  165.4358 C.ar    1  UNL1        0.1651
     13 C         142.0296  138.1628  160.5439 C.ar    1  UNL1        0.1388
     14 C         142.7492  137.9000  161.8334 C.ar    1  UNL1        0.0384
     15 C         142.0634  138.1609  163.1417 C.ar    1  UNL1        0.0223
     16 C         140.6580  138.6847  163.1604 C.ar    1  UNL1        0.0847
     17 C         139.9384  138.9475  161.8708 C.ar    1  UNL1        0.0223
     18 C         140.6242  138.6866  160.5626 C.ar    1  UNL1        0.0384
     19 C         143.0323  139.0423  158.3143 C.3     1  UNL1        0.2525
     20 O         142.7154  137.9018  159.2356 O.3     1  UNL1       -0.4714
     21 C         142.7415  143.5610  162.4881 C.2     1  UNL1        0.2458
     22 O         143.6805  144.7255  162.3781 O.2     1  UNL1       -0.2701
     23 N         141.9419  143.1271  161.2955 N.am    1  UNL1       -0.3009
     24 H         141.3256  142.3628  161.3676 H       1  UNL1        0.1497
     25 C         142.0813  143.8578  159.9929 C.3     1  UNL1        0.0897
     26 C         141.4038  145.1821  159.7995 C.3     1  UNL1        0.0216
     27 C         140.0433  145.4210  160.3843 C.3     1  UNL1        0.0064
     28 C         139.9040  145.8005  161.8288 C.3     1  UNL1        0.0264
     29 C         139.2782  144.8426  162.7988 C.ar    1  UNL1       -0.0222
     30 C         138.3951  143.7383  162.2983 C.ar    1  UNL1       -0.0043
     31 C         137.7692  142.7804  163.2683 C.ar    1  UNL1       -0.0003
     32 C         138.0264  142.9269  164.7388 C.ar    1  UNL1       -0.0000
     33 C         138.9095  144.0313  165.2393 C.ar    1  UNL1       -0.0003
     34 C         139.5354  144.9891  164.2694 C.ar    1  UNL1       -0.0043
@<TRIPOS>BOND
     1    19    20    1
     2    20    13    1
     3    13    14   ar
     4    14    15   ar
     5    15    16   ar
     6    16     7    1
     7     7     8   ar
     8     8     9   ar
     9     9    10    1
    10     9    11   ar
    11    11    12   ar
    12    12     1    1
    13     1     2   ar
    14     2     3   ar
    15     3     4   ar
    16     4     5   ar
    17     5    21    1
    18    21    22    2
    19    21    23   am
    20    23    25    1
    21    25    26    1
    22    26    27    1
    23    27    28    1
    24    28    29    1
    25    29    30   ar
    26    30    31   ar
    27    31    32   ar
    28    32    33   ar
    29    33    34   ar
    30     5     6   ar
    31    16    17   ar
    32    17    18   ar
    33    18    13   ar
    34    12     7   ar
    35     6     1   ar
    36    34    29   ar
    37    23    24    1
@<TRIPOS>MOLECULE
*****
 34 37 0 0 0
SMALL
GASTEIGER

@<TRIPOS>ATOM
      1 C         139.8481  141.0696  166.4957 C.ar    1  UNL1        0.0360
      2 C         139.1708  139.7443  166.3086 C.ar    1  UNL1        0.0031
      3 C         138.2471  139.5316  165.1460 C.ar    1  UNL1        0.0002
      4 C         138.0008  140.6441  164.1705 C.ar    1  UNL1        0.0045
      5 C         138.6781  141.9693  164.3576 C.ar    1  UNL1        0.0535
      6 C         139.6018  142.1820  165.5202 C.ar    1  UNL1        0.0076
      7 N         142.2575  141.4736  167.5805 N.ar    1  UNL1       -0.2111
      8 N         142.7758  141.6506  168.9769 N.ar    1  UNL1       -0.1488
      9 C         141.6104  141.5686  169.9178 C.ar    1  UNL1        0.1612
     10 C         141.6727  141.6926  171.4114 C.3     1  UNL1        0.0756
     11 N         140.3718  141.3410  169.1028 N.ar    1  UNL1       -0.2101
     12 C         140.7718  141.2823  167.6583 C.ar    1  UNL1        0.1651
     13 C         144.7263  141.5101  163.8184 C.ar    1  UNL1        0.1388
     14 C         144.1858  140.2151  164.3482 C.ar    1  UNL1        0.0384
     15 C         143.3628  140.2029  165.6022 C.ar    1  UNL1        0.0223
     16 C         143.0804  141.4858  166.3265 C.ar    1  UNL1        0.0847
     17 C         143.6209  142.7808  165.7966 C.ar    1  UNL1        0.0223
     18 C         144.4439  142.7929  164.5426 C.ar    1  UNL1        0.0384
     19 C         145.0855  142.3031  161.3705 C.3     1  UNL1        0.2525
     20 O         145.5492  141.5223  162.5643 O.3     1  UNL1       -0.4714
     21 C         138.4318  143.0818  163.3821 C.2     1  UNL1        0.2458
     22 O         137.4601  142.8902  162.2556 O.2     1  UNL1       -0.2701
     23 N         139.1571  144.3861  163.5331 N.am    1  UNL1       -0.3009
     24 H         139.7948  144.5119  164.2725 H       1  UNL1        0.1497
     25 C         138.9107  145.4986  162.5576 C.3     1  UNL1        0.0897
     26 C         140.0399  146.0303  161.7256 C.3     1  UNL1        0.0216
     27 C         140.5928  145.2088  160.5989 C.3     1  UNL1        0.0064
     28 C         141.5724  144.1089  160.8831 C.3     1  UNL1        0.0264
     29 C         141.0935  142.6936  161.0150 C.ar    1  UNL1       -0.0222
     30 C         141.6350  141.8171  162.1051 C.ar    1  UNL1       -0.0043
     31 C         141.1560  140.4017  162.2370 C.ar    1  UNL1       -0.0003
     32 C         140.1356  139.8629  161.2788 C.ar    1  UNL1       -0.0000
     33 C         139.5940  140.7394  160.1886 C.ar    1  UNL1       -0.0003
     34 C         140.0729  142.1547  160.0567 C.ar    1  UNL1       -0.0043
@<TRIPOS>BOND
     1    19    20    1
     2    20    13    1
     3    13    14   ar
     4    14    15   ar
     5    15    16   ar
     6    16     7    1
     7     7     8   ar
     8     8     9   ar
     9     9    10    1
    10     9    11   ar
    11    11    12   ar
    12    12     1    1
    13     1     2   ar
    14     2     3   ar
    15     3     4   ar
    16     4     5   ar
    17     5    21    1
    18    21    22    2
    19    21    23   am
    20    23    25    1
    21    25    26    1
    22    26    27    1
    23    27    28    1
    24    28    29    1
    25    29    30   ar
    26    30    31   ar
    27    31    32   ar
    28    32    33   ar
    29    33    34   ar
    30     5     6   ar
    31    16    17   ar
    32    17    18   ar
    33    18    13   ar
    34    12     7   ar
    35     6     1   ar
    36    34    29   ar
    37    23    24    1
@<TRIPOS>MOLECULE
*****
 34 37 0 0 0
SMALL
GASTEIGER

@<TRIPOS>ATOM
      1 C         142.1434  141.1488  165.9130 C.ar    1  UNL1        0.0360
      2 C         143.4410  140.4373  165.6675 C.ar    1  UNL1        0.0031
      3 C         144.3778  140.9310  164.6051 C.ar    1  UNL1        0.0002
      4 C         144.0171  142.1362  163.7881 C.ar    1  UNL1        0.0045
      5 C         142.7196  142.8477  164.0336 C.ar    1  UNL1        0.0535
      6 C         141.7828  142.3540  165.0961 C.ar    1  UNL1        0.0076
      7 N         139.8862  139.9824  166.7433 N.ar    1  UNL1       -0.2111
      8 N         139.2894  139.6590  168.0809 N.ar    1  UNL1       -0.1488
      9 C         140.2409  140.1319  169.1397 C.ar    1  UNL1        0.1612
     10 C         140.0423  140.0105  170.6215 C.3     1  UNL1        0.0756
     11 N         141.4258  140.7476  168.4564 N.ar    1  UNL1       -0.2101
     12 C         141.2066  140.6551  166.9754 C.ar    1  UNL1        0.1651
     13 C         138.0398  139.0907  162.7376 C.ar    1  UNL1        0.1388
     14 C         138.8554  138.0441  163.4372 C.ar    1  UNL1        0.0384
     15 C         139.4709  138.3413  164.7724 C.ar    1  UNL1        0.0223
     16 C         139.2707  139.6851  165.4080 C.ar    1  UNL1        0.0847
     17 C         138.4552  140.7317  164.7085 C.ar    1  UNL1        0.0223
     18 C         137.8397  140.4345  163.3732 C.ar    1  UNL1        0.0384
     19 C         137.5742  139.7696  160.2734 C.3     1  UNL1        0.2525
     20 O         137.4243  138.7934  161.4024 O.3     1  UNL1       -0.4714
     21 C         142.3589  144.0529  163.2167 C.2     1  UNL1        0.2458
     22 O         143.4247  144.8001  162.4712 O.2     1  UNL1       -0.2701
     23 N         140.9324  144.5110  163.1453 N.am    1  UNL1       -0.3009
     24 H         140.2328  144.0207  163.6346 H       1  UNL1        0.1497
     25 C         140.5717  145.7162  162.3284 C.3     1  UNL1        0.0897
     26 C         140.2520  145.5659  160.8706 C.3     1  UNL1        0.0216
     27 C         140.0605  144.1997  160.2818 C.3     1  UNL1        0.0064
     28 C         141.2218  143.4806  159.6619 C.3     1  UNL1        0.0264
     29 C         141.7257  142.2055  160.2702 C.ar    1  UNL1       -0.0222
     30 C         140.8444  141.4141  161.1907 C.ar    1  UNL1       -0.0043
     31 C         141.3483  140.1390  161.7990 C.ar    1  UNL1       -0.0003
     32 C         142.7334  139.6552  161.4871 C.ar    1  UNL1       -0.0000
     33 C         143.6146  140.4465  160.5667 C.ar    1  UNL1       -0.0003
     34 C         143.1109  141.7216  159.9583 C.ar    1  UNL1       -0.0043
@<TRIPOS>BOND
     1    19    20    1
     2    20    13    1
     3    13    14   ar
     4    14    15   ar
     5    15    16   ar
     6    16     7    1
     7     7     8   ar
     8     8     9   ar
     9     9    10    1
    10     9    11   ar
    11    11    12   ar
    12    12     1    1
    13     1     2   ar
    14     2     3   ar
    15     3     4   ar
    16     4     5   ar
    17     5    21    1
    18    21    22    2
    19    21    23   am
    20    23    25    1
    21    25    26    1
    22    26    27    1
    23    27    28    1
    24    28    29    1
    25    29    30   ar
    26    30    31   ar
    27    31    32   ar
    28    32    33   ar
    29    33    34   ar
    30     5     6   ar
    31    16    17   ar
    32    17    18   ar
    33    18    13   ar
    34    12     7   ar
    35     6     1   ar
    36    34    29   ar
    37    23    24    1
