@<TRIPOS>MOLECULE
*****
 22 25 0 0 0
SMALL
GASTEIGER

@<TRIPOS>ATOM
      1 O         140.7692  136.8009  163.7478 O.2     1  UNL1       -0.2523
      2 C         140.7202  138.0259  164.6121 C.2     1  UNL1        0.3077
      3 N         141.8058  139.0564  164.5146 N.am    1  UNL1       -0.2558
      4 C         142.9967  138.9992  163.6043 C.3     1  UNL1        0.1217
      5 C         143.8180  140.2325  163.8374 C.ar    1  UNL1       -0.0046
      6 C         145.0997  140.7152  163.2257 C.ar    1  UNL1       -0.0029
      7 C         145.6982  142.0175  163.6685 C.ar    1  UNL1       -0.0003
      8 C         145.0149  142.8370  164.7228 C.ar    1  UNL1       -0.0003
      9 C         143.7332  142.3542  165.3344 C.ar    1  UNL1       -0.0029
     10 C         143.1347  141.0520  164.8917 C.ar    1  UNL1       -0.0046
     11 C         141.8911  140.3251  165.3102 C.3     1  UNL1        0.1217
     12 N         139.5858  138.2203  165.5739 N.am    1  UNL1       -0.2643
     13 C         138.4347  137.2810  165.7811 C.3     1  UNL1        0.0950
     14 C         137.5406  137.8684  166.8327 C.3     1  UNL1        0.0233
     15 C         138.1392  139.1706  167.2754 C.3     1  UNL1        0.0230
     16 C         139.4031  139.3881  166.4975 C.3     1  UNL1        0.0928
     17 C         140.3229  140.5665  166.6212 C.3     1  UNL1        0.0922
     18 N         140.2728  141.4316  167.8456 N.3     1  UNL1       -0.2713
     19 C         140.4793  142.9168  167.8847 C.3     1  UNL1        0.0722
     20 C         140.3416  143.3667  169.3091 C.3     1  UNL1        0.0188
     21 C         140.0501  142.1595  170.1502 C.3     1  UNL1        0.0188
     22 C         140.0076  140.9636  169.2457 C.3     1  UNL1        0.0722
@<TRIPOS>BOND
     1     1     2    2
     2     2     3   am
     3     3     4    1
     4     4     5    1
     5     5     6   ar
     6     6     7   ar
     7     7     8   ar
     8     8     9   ar
     9     9    10   ar
    10    10    11    1
    11     2    12   am
    12    12    13    1
    13    13    14    1
    14    14    15    1
    15    15    16    1
    16    16    17    1
    17    17    18    1
    18    18    19    1
    19    19    20    1
    20    20    21    1
    21    21    22    1
    22    11     3    1
    23    16    12    1
    24    22    18    1
    25    10     5   ar
@<TRIPOS>MOLECULE
*****
 22 25 0 0 0
SMALL
GASTEIGER

@<TRIPOS>ATOM
      1 O         137.4787  138.4838  166.7410 O.2     1  UNL1       -0.2523
      2 C         138.7842  139.0805  166.3054 C.2     1  UNL1        0.3077
      3 N         139.6119  139.8658  167.2792 N.am    1  UNL1       -0.2558
      4 C         139.2656  140.1368  168.7133 C.3     1  UNL1        0.1217
      5 C         140.3709  140.9564  169.3102 C.ar    1  UNL1       -0.0046
      6 C         140.5730  141.5187  170.6861 C.ar    1  UNL1       -0.0029
      7 C         141.8045  142.3165  170.9968 C.ar    1  UNL1       -0.0003
      8 C         142.8341  142.5522  169.9316 C.ar    1  UNL1       -0.0003
      9 C         142.6320  141.9900  168.5557 C.ar    1  UNL1       -0.0029
     10 C         141.4004  141.1921  168.2451 C.ar    1  UNL1       -0.0046
     11 C         140.9313  140.5180  166.9898 C.3     1  UNL1        0.1217
     12 N         139.2619  138.8919  164.8961 N.am    1  UNL1       -0.2643
     13 C         138.5463  138.1356  163.8163 C.3     1  UNL1        0.0950
     14 C         139.3812  138.2028  162.5719 C.3     1  UNL1        0.0233
     15 C         140.6128  139.0007  162.8827 C.3     1  UNL1        0.0230
     16 C         140.5391  139.4266  164.3190 C.3     1  UNL1        0.0928
     17 C         141.5627  140.2437  165.0501 C.3     1  UNL1        0.0922
     18 N         143.0036  140.1848  164.6372 N.3     1  UNL1       -0.2713
     19 C         143.9717  139.0882  164.9693 C.3     1  UNL1        0.0722
     20 C         145.2958  139.4377  164.3572 C.3     1  UNL1        0.0188
     21 C         145.1460  140.7503  163.6469 C.3     1  UNL1        0.0188
     22 C         143.7294  141.2120  163.8200 C.3     1  UNL1        0.0722
@<TRIPOS>BOND
     1     1     2    2
     2     2     3   am
     3     3     4    1
     4     4     5    1
     5     5     6   ar
     6     6     7   ar
     7     7     8   ar
     8     8     9   ar
     9     9    10   ar
    10    10    11    1
    11     2    12   am
    12    12    13    1
    13    13    14    1
    14    14    15    1
    15    15    16    1
    16    16    17    1
    17    17    18    1
    18    18    19    1
    19    19    20    1
    20    20    21    1
    21    21    22    1
    22    11     3    1
    23    16    12    1
    24    22    18    1
    25    10     5   ar
@<TRIPOS>MOLECULE
*****
 22 25 0 0 0
SMALL
GASTEIGER

@<TRIPOS>ATOM
      1 O         142.5391  137.6048  165.3775 O.2     1  UNL1       -0.2523
      2 C         141.5301  138.7082  165.4972 C.2     1  UNL1        0.3077
      3 N         141.6585  139.7264  166.5912 N.am    1  UNL1       -0.2558
      4 C         142.7365  139.7696  167.6334 C.3     1  UNL1        0.1217
      5 C         142.4756  140.9501  168.5214 C.ar    1  UNL1       -0.0046
      6 C         143.2064  141.4887  169.7155 C.ar    1  UNL1       -0.0029
      7 C         142.6980  142.7136  170.4162 C.ar    1  UNL1       -0.0003
      8 C         141.4588  143.3999  169.9228 C.ar    1  UNL1       -0.0003
      9 C         140.7280  142.8613  168.7288 C.ar    1  UNL1       -0.0029
     10 C         141.2365  141.6364  168.0280 C.ar    1  UNL1       -0.0046
     11 C         140.7315  140.8801  166.8351 C.3     1  UNL1        0.1217
     12 N         140.3928  138.7935  164.5230 N.am    1  UNL1       -0.2643
     13 C         140.1356  137.8526  163.3834 C.3     1  UNL1        0.0950
     14 C         138.8968  138.3122  162.6733 C.3     1  UNL1        0.0233
     15 C         138.3883  139.5372  163.3741 C.3     1  UNL1        0.0230
     16 C         139.3129  139.8346  164.5172 C.3     1  UNL1        0.0928
     17 C         139.1809  140.9732  165.4847 C.3     1  UNL1        0.0922
     18 N         138.8884  142.3555  164.9809 N.3     1  UNL1       -0.2713
     19 C         139.8285  143.5238  165.0158 C.3     1  UNL1        0.0722
     20 C         139.1256  144.7026  164.4102 C.3     1  UNL1        0.0188
     21 C         137.7513  144.2626  164.0011 C.3     1  UNL1        0.0188
     22 C         137.6046  142.8121  164.3538 C.3     1  UNL1        0.0722
@<TRIPOS>BOND
     1     1     2    2
     2     2     3   am
     3     3     4    1
     4     4     5    1
     5     5     6   ar
     6     6     7   ar
     7     7     8   ar
     8     8     9   ar
     9     9    10   ar
    10    10    11    1
    11     2    12   am
    12    12    13    1
    13    13    14    1
    14    14    15    1
    15    15    16    1
    16    16    17    1
    17    17    18    1
    18    18    19    1
    19    19    20    1
    20    20    21    1
    21    21    22    1
    22    11     3    1
    23    16    12    1
    24    22    18    1
    25    10     5   ar
@<TRIPOS>MOLECULE
*****
 22 25 0 0 0
SMALL
GASTEIGER

@<TRIPOS>ATOM
      1 O         139.2108  137.6547  165.0580 O.2     1  UNL1       -0.2523
      2 C         139.9365  138.9672  165.0328 C.2     1  UNL1        0.3077
      3 N         139.9591  139.8353  166.2558 N.am    1  UNL1       -0.2558
      4 C         139.3050  139.5251  167.5695 C.3     1  UNL1        0.1217
      5 C         139.5814  140.6642  168.5055 C.ar    1  UNL1       -0.0046
      6 C         139.1885  140.9089  169.9323 C.ar    1  UNL1       -0.0029
      7 C         139.6206  142.1678  170.6238 C.ar    1  UNL1       -0.0003
      8 C         140.4456  143.1821  169.8885 C.ar    1  UNL1       -0.0003
      9 C         140.8385  142.9375  168.4618 C.ar    1  UNL1       -0.0029
     10 C         140.4064  141.6785  167.7703 C.ar    1  UNL1       -0.0046
     11 C         140.6398  141.1662  166.3799 C.3     1  UNL1        0.1217
     12 N         140.6397  139.4115  163.7846 N.am    1  UNL1       -0.2643
     13 C         140.7034  138.6541  162.4914 C.3     1  UNL1        0.0950
     14 C         141.5057  139.4658  161.5178 C.3     1  UNL1        0.0233
     15 C         141.9378  140.7248  162.2094 C.3     1  UNL1        0.0230
     16 C         141.4026  140.6913  163.6103 C.3     1  UNL1        0.0928
     17 C         141.5962  141.7513  164.6537 C.3     1  UNL1        0.0922
     18 N         142.0686  143.1182  164.2556 N.3     1  UNL1       -0.2713
     19 C         141.1950  144.2787  163.8818 C.3     1  UNL1        0.0722
     20 C         142.0840  145.4424  163.5566 C.3     1  UNL1        0.0188
     21 C         143.5070  145.0008  163.7294 C.3     1  UNL1        0.0188
     22 C         143.4975  143.5644  164.1614 C.3     1  UNL1        0.0722
@<TRIPOS>BOND
     1     1     2    2
     2     2     3   am
     3     3     4    1
     4     4     5    1
     5     5     6   ar
     6     6     7   ar
     7     7     8   ar
     8     8     9   ar
     9     9    10   ar
    10    10    11    1
    11     2    12   am
    12    12    13    1
    13    13    14    1
    14    14    15    1
    15    15    16    1
    16    16    17    1
    17    17    18    1
    18    18    19    1
    19    19    20    1
    20    20    21    1
    21    21    22    1
    22    11     3    1
    23    16    12    1
    24    22    18    1
    25    10     5   ar
@<TRIPOS>MOLECULE
*****
 22 25 0 0 0
SMALL
GASTEIGER

@<TRIPOS>ATOM
      1 O         138.5288  139.4414  168.8288 O.2     1  UNL1       -0.2523
      2 C         139.6017  140.0300  167.9613 C.2     1  UNL1        0.3077
      3 N         139.6999  139.6345  166.5177 N.am    1  UNL1       -0.2558
      4 C         138.8013  138.6676  165.8053 C.3     1  UNL1        0.1217
      5 C         139.2600  138.5720  164.3803 C.ar    1  UNL1       -0.0046
      6 C         138.7540  137.7756  163.2143 C.ar    1  UNL1       -0.0029
      7 C         139.4302  137.8871  161.8800 C.ar    1  UNL1       -0.0003
      8 C         140.6123  138.7950  161.7117 C.ar    1  UNL1       -0.0003
      9 C         141.1183  139.5914  162.8778 C.ar    1  UNL1       -0.0029
     10 C         140.4421  139.4799  164.2121 C.ar    1  UNL1       -0.0046
     11 C         140.7140  140.1366  165.5330 C.3     1  UNL1        0.1217
     12 N         140.5763  141.0139  168.5374 N.am    1  UNL1       -0.2643
     13 C         140.6021  141.5021  169.9555 C.3     1  UNL1        0.0950
     14 C         141.7381  142.4725  170.0911 C.3     1  UNL1        0.0233
     15 C         142.4142  142.5839  168.7567 C.3     1  UNL1        0.0230
     16 C         141.6962  141.6826  167.7965 C.3     1  UNL1        0.0928
     17 C         142.0380  141.4845  166.3495 C.3     1  UNL1        0.0922
     18 N         142.5842  142.6265  165.5447 N.3     1  UNL1       -0.2713
     19 C         144.0264  143.0277  165.4497 C.3     1  UNL1        0.0722
     20 C         144.1177  144.2169  164.5400 C.3     1  UNL1        0.0188
     21 C         142.7320  144.5505  164.0728 C.3     1  UNL1        0.0188
     22 C         141.7842  143.5675  164.6938 C.3     1  UNL1        0.0722
@<TRIPOS>BOND
     1     1     2    2
     2     2     3   am
     3     3     4    1
     4     4     5    1
     5     5     6   ar
     6     6     7   ar
     7     7     8   ar
     8     8     9   ar
     9     9    10   ar
    10    10    11    1
    11     2    12   am
    12    12    13    1
    13    13    14    1
    14    14    15    1
    15    15    16    1
    16    16    17    1
    17    17    18    1
    18    18    19    1
    19    19    20    1
    20    20    21    1
    21    21    22    1
    22    11     3    1
    23    16    12    1
    24    22    18    1
    25    10     5   ar
@<TRIPOS>MOLECULE
*****
 22 25 0 0 0
SMALL
GASTEIGER

@<TRIPOS>ATOM
      1 O         143.9790  137.8604  166.5199 O.2     1  UNL1       -0.2523
      2 C         143.2689  139.1231  166.1312 C.2     1  UNL1        0.3077
      3 N         142.5921  139.9560  167.1791 N.am    1  UNL1       -0.2558
      4 C         142.5414  139.6550  168.6477 C.3     1  UNL1        0.1217
      5 C         141.7651  140.7491  169.3187 C.ar    1  UNL1       -0.0046
      6 C         141.3935  140.9818  170.7532 C.ar    1  UNL1       -0.0029
      7 C         140.5928  142.1917  171.1337 C.ar    1  UNL1       -0.0003
      8 C         140.1636  143.1690  170.0798 C.ar    1  UNL1       -0.0003
      9 C         140.5352  142.9363  168.6453 C.ar    1  UNL1       -0.0029
     10 C         141.3359  141.7264  168.2648 C.ar    1  UNL1       -0.0046
     11 C         141.8470  141.2362  166.9425 C.3     1  UNL1        0.1217
     12 N         143.2356  139.5530  164.6945 N.am    1  UNL1       -0.2643
     13 C         143.8639  138.8268  163.5421 C.3     1  UNL1        0.0950
     14 C         143.5848  139.6096  162.2933 C.3     1  UNL1        0.0233
     15 C         142.7840  140.8195  162.6739 C.3     1  UNL1        0.0230
     16 C         142.5682  140.7846  164.1579 C.3     1  UNL1        0.0928
     17 C         141.8170  141.8024  164.9638 C.3     1  UNL1        0.0922
     18 N         141.5259  143.1538  164.3816 N.3     1  UNL1       -0.2713
     19 C         142.5315  144.2349  164.1168 C.3     1  UNL1        0.0722
     20 C         141.8052  145.4107  163.5335 C.3     1  UNL1        0.0188
     21 C         140.3509  145.0563  163.4379 C.3     1  UNL1        0.0188
     22 C         140.1783  143.6615  163.9621 C.3     1  UNL1        0.0722
@<TRIPOS>BOND
     1     1     2    2
     2     2     3   am
     3     3     4    1
     4     4     5    1
     5     5     6   ar
     6     6     7   ar
     7     7     8   ar
     8     8     9   ar
     9     9    10   ar
    10    10    11    1
    11     2    12   am
    12    12    13    1
    13    13    14    1
    14    14    15    1
    15    15    16    1
    16    16    17    1
    17    17    18    1
    18    18    19    1
    19    19    20    1
    20    20    21    1
    21    21    22    1
    22    11     3    1
    23    16    12    1
    24    22    18    1
    25    10     5   ar
@<TRIPOS>MOLECULE
*****
 22 25 0 0 0
SMALL
GASTEIGER

@<TRIPOS>ATOM
      1 O         144.1469  140.2288  162.0979 O.2     1  UNL1       -0.2523
      2 C         143.1943  141.0081  162.9553 C.2     1  UNL1        0.3077
      3 N         142.0710  140.3053  163.6582 N.am    1  UNL1       -0.2558
      4 C         141.7759  138.8358  163.5989 C.3     1  UNL1        0.1217
      5 C         140.5681  138.5708  164.4480 C.ar    1  UNL1       -0.0046
      6 C         139.8210  137.3093  164.7647 C.ar    1  UNL1       -0.0029
      7 C         138.6225  137.3535  165.6655 C.ar    1  UNL1       -0.0003
      8 C         138.1711  138.6592  166.2497 C.ar    1  UNL1       -0.0003
      9 C         138.9182  139.9208  165.9330 C.ar    1  UNL1       -0.0029
     10 C         140.1167  139.8766  165.0321 C.ar    1  UNL1       -0.0046
     11 C         141.0455  140.9485  164.5440 C.3     1  UNL1        0.1217
     12 N         143.3650  142.4903  163.1096 N.am    1  UNL1       -0.2643
     13 C         144.4350  143.3259  162.4716 C.3     1  UNL1        0.0950
     14 C         144.2270  144.7493  162.8968 C.3     1  UNL1        0.0233
     15 C         143.0284  144.7934  163.7977 C.3     1  UNL1        0.0230
     16 C         142.4957  143.3974  163.9293 C.3     1  UNL1        0.0928
     17 C         141.3031  142.9813  164.7383 C.3     1  UNL1        0.0922
     18 N         139.9528  143.5604  164.4361 N.3     1  UNL1       -0.2713
     19 C         138.9544  144.0430  165.4462 C.3     1  UNL1        0.0722
     20 C         137.7482  144.5394  164.7052 C.3     1  UNL1        0.0188
     21 C         138.0013  144.3634  163.2372 C.3     1  UNL1        0.0188
     22 C         139.3638  143.7584  163.0709 C.3     1  UNL1        0.0722
@<TRIPOS>BOND
     1     1     2    2
     2     2     3   am
     3     3     4    1
     4     4     5    1
     5     5     6   ar
     6     6     7   ar
     7     7     8   ar
     8     8     9   ar
     9     9    10   ar
    10    10    11    1
    11     2    12   am
    12    12    13    1
    13    13    14    1
    14    14    15    1
    15    15    16    1
    16    16    17    1
    17    17    18    1
    18    18    19    1
    19    19    20    1
    20    20    21    1
    21    21    22    1
    22    11     3    1
    23    16    12    1
    24    22    18    1
    25    10     5   ar
@<TRIPOS>MOLECULE
*****
 22 25 0 0 0
SMALL
GASTEIGER

@<TRIPOS>ATOM
      1 O         138.4164  139.1657  168.1223 O.2     1  UNL1       -0.2523
      2 C         139.5085  139.9607  167.4702 C.2     1  UNL1        0.3077
      3 N         139.3180  140.5000  166.0836 N.am    1  UNL1       -0.2558
      4 C         138.0969  140.3263  165.2300 C.3     1  UNL1        0.1217
      5 C         138.3394  141.0267  163.9259 C.ar    1  UNL1       -0.0046
      6 C         137.4890  141.1905  162.7012 C.ar    1  UNL1       -0.0029
      7 C         138.0096  141.9608  161.5242 C.ar    1  UNL1       -0.0003
      8 C         139.3806  142.5674  161.5718 C.ar    1  UNL1       -0.0003
      9 C         140.2311  142.4036  162.7964 C.ar    1  UNL1       -0.0029
     10 C         139.7105  141.6333  163.9735 C.ar    1  UNL1       -0.0046
     11 C         140.3153  141.3078  165.3070 C.3     1  UNL1        0.1217
     12 N         140.7911  140.2163  168.2048 N.am    1  UNL1       -0.2643
     13 C         141.1238  139.7434  169.5889 C.3     1  UNL1        0.0950
     14 C         142.5046  140.2246  169.9238 C.3     1  UNL1        0.0233
     15 C         143.0251  140.9950  168.7466 C.3     1  UNL1        0.0230
     16 C         141.9662  140.9899  167.6843 C.3     1  UNL1        0.0928
     17 C         142.0649  141.6435  166.3379 C.3     1  UNL1        0.0922
     18 N         143.2877  141.4400  165.4932 N.3     1  UNL1       -0.2713
     19 C         144.1833  142.5206  164.9638 C.3     1  UNL1        0.0722
     20 C         145.2787  141.8687  164.1730 C.3     1  UNL1        0.0188
     21 C         145.0599  140.3853  164.2137 C.3     1  UNL1        0.0188
     22 C         143.8294  140.1204  165.0296 C.3     1  UNL1        0.0722
@<TRIPOS>BOND
     1     1     2    2
     2     2     3   am
     3     3     4    1
     4     4     5    1
     5     5     6   ar
     6     6     7   ar
     7     7     8   ar
     8     8     9   ar
     9     9    10   ar
    10    10    11    1
    11     2    12   am
    12    12    13    1
    13    13    14    1
    14    14    15    1
    15    15    16    1
    16    16    17    1
    17    17    18    1
    18    18    19    1
    19    19    20    1
    20    20    21    1
    21    21    22    1
    22    11     3    1
    23    16    12    1
    24    22    18    1
    25    10     5   ar
@<TRIPOS>MOLECULE
*****
 22 25 0 0 0
SMALL
GASTEIGER

@<TRIPOS>ATOM
      1 O         144.1101  142.7752  169.2412 O.2     1  UNL1       -0.2523
      2 C         143.0232  142.1759  168.3989 C.2     1  UNL1        0.3077
      3 N         143.0439  142.3543  166.9097 N.am    1  UNL1       -0.2558
      4 C         144.0810  143.1023  166.1256 C.3     1  UNL1        0.1217
      5 C         143.7092  143.0263  164.6744 C.ar    1  UNL1       -0.0046
      6 C         144.3606  143.5783  163.4411 C.ar    1  UNL1       -0.0029
      7 C         143.7450  143.3353  162.0951 C.ar    1  UNL1       -0.0003
      8 C         142.4780  142.5403  161.9823 C.ar    1  UNL1       -0.0003
      9 C         141.8266  141.9883  163.2155 C.ar    1  UNL1       -0.0029
     10 C         142.4422  142.2313  164.5616 C.ar    1  UNL1       -0.0046
     11 C         142.0311  141.8160  165.9430 C.3     1  UNL1        0.1217
     12 N         141.9157  141.3983  169.0458 N.am    1  UNL1       -0.2643
     13 C         141.7627  141.1377  170.5151 C.3     1  UNL1        0.0950
     14 C         140.5191  140.3230  170.7144 C.3     1  UNL1        0.0233
     15 C         139.9035  140.0799  169.3682 C.3     1  UNL1        0.0230
     16 C         140.7666  140.7445  168.3370 C.3     1  UNL1        0.0928
     17 C         140.5235  140.7537  166.8569 C.3     1  UNL1        0.0922
     18 N         139.9893  139.5280  166.1769 N.3     1  UNL1       -0.2713
     19 C         140.7633  138.6113  165.2765 C.3     1  UNL1        0.0722
     20 C         139.8399  137.5205  164.8210 C.3     1  UNL1        0.0188
     21 C         138.4953  137.7631  165.4399 C.3     1  UNL1        0.0188
     22 C         138.5877  139.0037  166.2779 C.3     1  UNL1        0.0722
@<TRIPOS>BOND
     1     1     2    2
     2     2     3   am
     3     3     4    1
     4     4     5    1
     5     5     6   ar
     6     6     7   ar
     7     7     8   ar
     8     8     9   ar
     9     9    10   ar
    10    10    11    1
    11     2    12   am
    12    12    13    1
    13    13    14    1
    14    14    15    1
    15    15    16    1
    16    16    17    1
    17    17    18    1
    18    18    19    1
    19    19    20    1
    20    20    21    1
    21    21    22    1
    22    11     3    1
    23    16    12    1
    24    22    18    1
    25    10     5   ar
