@<TRIPOS>MOLECULE
*****
 34 38 0 0 0
SMALL
GASTEIGER

@<TRIPOS>ATOM
      1 C         138.1270  140.3565  163.3042 C.2     1  UNL1        0.2317
      2 O         137.1051  141.3919  162.9386 O.2     1  UNL1       -0.2744
      3 N         139.3429  140.1671  162.4465 N.am    1  UNL1       -0.2764
      4 C         139.5370  141.0132  161.2232 C.3     1  UNL1        0.1107
      5 C         140.7529  140.8239  160.3655 C.3     1  UNL1        0.0939
      6 N         141.7748  139.7884  160.7311 N.3     1  UNL1       -0.2695
      7 C         141.5807  138.9423  161.9544 C.3     1  UNL1        0.0939
      8 C         140.3647  139.1317  162.8121 C.3     1  UNL1        0.1107
      9 C         137.9329  139.5103  164.5275 C.3     1  UNL1        0.1305
     10 C         137.4006  137.9119  167.0098 C.3     1  UNL1        0.0323
     11 C         138.2650  139.1360  167.0769 C.ar    1  UNL1       -0.0063
     12 C         138.8632  139.5609  168.3852 C.ar    1  UNL1        0.0178
     13 C         139.7276  140.7850  168.4524 C.ar    1  UNL1        0.1050
     14 C         139.9938  141.5841  167.2112 C.ar    1  UNL1        0.1176
     15 N         139.3955  141.1592  165.9029 N.ar    1  UNL1       -0.2464
     16 C         138.5311  139.9352  165.8358 C.ar    1  UNL1        0.0643
     17 N         140.3258  141.2098  169.7606 N.ar    1  UNL1       -0.1871
     18 C         141.6650  140.7948  170.2940 C.ar    1  UNL1        0.2259
     19 N         141.8566  141.4528  171.6282 N.ar    1  UNL1       -0.1045
     20 N         140.6359  142.2744  171.9196 N.ar    1  UNL1       -0.0222
     21 N         139.6899  142.1242  170.7653 N.ar    1  UNL1       -0.0384
     22 C         142.9907  139.5991  159.8734 C.3     1  UNL1        0.0769
     23 C         144.2830  140.2625  160.2473 C.3     1  UNL1        0.0433
     24 C         144.3610  141.1104  161.4823 C.ar    1  UNL1       -0.0249
     25 C         144.8430  140.5147  162.7717 C.ar    1  UNL1       -0.0043
     26 C         144.9209  141.3625  164.0067 C.ar    1  UNL1        0.0059
     27 C         144.5169  142.8060  163.9522 C.ar    1  UNL1        0.0748
     28 C         144.0348  143.4017  162.6627 C.ar    1  UNL1        0.0233
     29 C         143.9569  142.5540  161.4277 C.ar    1  UNL1       -0.0260
     30 C         143.4748  143.1496  160.1382 C.3     1  UNL1        0.0305
     31 C         143.7068  144.8440  162.9124 C.3     1  UNL1        0.2352
     32 O         143.9861  145.1396  164.3562 O.3     1  UNL1       -0.4404
     33 C         144.4867  143.8801  164.9988 C.2     1  UNL1        0.3413
     34 O         144.8870  143.7224  166.4358 O.2     1  UNL1       -0.2449
@<TRIPOS>BOND
     1    10    11    1
     2    11    12   ar
     3    12    13   ar
     4    13    17    1
     5    17    18   ar
     6    18    19   ar
     7    19    20   ar
     8    20    21   ar
     9    13    14   ar
    10    14    15   ar
    11    15    16   ar
    12    16     9    1
    13     9     1    1
    14     1     2    2
    15     1     3   am
    16     3     4    1
    17     4     5    1
    18     5     6    1
    19     6    22    1
    20    22    23    1
    21    23    24    1
    22    24    25   ar
    23    25    26   ar
    24    26    27   ar
    25    27    28   ar
    26    28    29   ar
    27    29    30    1
    28    28    31    1
    29    31    32    1
    30    32    33    1
    31    33    34    2
    32     6     7    1
    33     7     8    1
    34    16    11   ar
    35     8     3    1
    36    21    17   ar
    37    29    24   ar
    38    33    27    1
@<TRIPOS>MOLECULE
*****
 34 38 0 0 0
SMALL
GASTEIGER

@<TRIPOS>ATOM
      1 C         140.4672  137.9256  163.3543 C.2     1  UNL1        0.2317
      2 O         139.0365  137.5613  163.0896 O.2     1  UNL1       -0.2744
      3 N         141.3101  138.5016  162.2553 N.am    1  UNL1       -0.2764
      4 C         140.7223  138.7132  160.8916 C.3     1  UNL1        0.1107
      5 C         141.5653  139.2891  159.7927 C.3     1  UNL1        0.0939
      6 N         142.9961  139.6535  160.0574 N.3     1  UNL1       -0.2695
      7 C         143.5840  139.4419  161.4211 C.3     1  UNL1        0.0939
      8 C         142.7409  138.8660  162.5200 C.3     1  UNL1        0.1107
      9 C         141.0551  137.7141  164.7180 C.3     1  UNL1        0.1305
     10 C         143.3940  138.8705  166.1988 C.3     1  UNL1        0.0323
     11 C         142.0003  139.3095  166.5377 C.ar    1  UNL1       -0.0063
     12 C         141.7760  140.3267  167.6171 C.ar    1  UNL1        0.0178
     13 C         140.3823  140.7657  167.9561 C.ar    1  UNL1        0.1050
     14 C         139.2129  140.1875  167.2157 C.ar    1  UNL1        0.1176
     15 N         139.4372  139.1703  166.1363 N.ar    1  UNL1       -0.2464
     16 C         140.8309  138.7313  165.7973 C.ar    1  UNL1        0.0643
     17 N         140.1580  141.7829  169.0354 N.ar    1  UNL1       -0.1871
     18 C         140.5389  143.2324  168.9738 C.ar    1  UNL1        0.2259
     19 N         140.1298  143.8745  170.2662 N.ar    1  UNL1       -0.1045
     20 N         139.4961  142.8218  171.1266 N.ar    1  UNL1       -0.0222
     21 N         139.5135  141.5291  170.3659 N.ar    1  UNL1       -0.0384
     22 C         143.8390  140.2294  158.9584 C.3     1  UNL1        0.0769
     23 C         144.0084  141.7154  158.8434 C.3     1  UNL1        0.0433
     24 C         143.0662  142.6355  159.5617 C.ar    1  UNL1       -0.0249
     25 C         141.7569  143.0088  158.9324 C.ar    1  UNL1       -0.0043
     26 C         140.8148  143.9289  159.6506 C.ar    1  UNL1        0.0059
     27 C         141.1821  144.4756  160.9983 C.ar    1  UNL1        0.0748
     28 C         142.4915  144.1023  161.6277 C.ar    1  UNL1        0.0233
     29 C         143.4336  143.1822  160.9094 C.ar    1  UNL1       -0.0260
     30 C         144.7431  142.8088  161.5387 C.3     1  UNL1        0.0305
     31 C         142.5806  144.7923  162.9566 C.3     1  UNL1        0.2352
     32 O         141.3262  145.5921  163.1485 O.3     1  UNL1       -0.4404
     33 C         140.4619  145.3964  161.9382 C.2     1  UNL1        0.3413
     34 O         139.1140  146.0132  161.7083 O.2     1  UNL1       -0.2449
@<TRIPOS>BOND
     1    10    11    1
     2    11    12   ar
     3    12    13   ar
     4    13    17    1
     5    17    18   ar
     6    18    19   ar
     7    19    20   ar
     8    20    21   ar
     9    13    14   ar
    10    14    15   ar
    11    15    16   ar
    12    16     9    1
    13     9     1    1
    14     1     2    2
    15     1     3   am
    16     3     4    1
    17     4     5    1
    18     5     6    1
    19     6    22    1
    20    22    23    1
    21    23    24    1
    22    24    25   ar
    23    25    26   ar
    24    26    27   ar
    25    27    28   ar
    26    28    29   ar
    27    29    30    1
    28    28    31    1
    29    31    32    1
    30    32    33    1
    31    33    34    2
    32     6     7    1
    33     7     8    1
    34    16    11   ar
    35     8     3    1
    36    21    17   ar
    37    29    24   ar
    38    33    27    1
@<TRIPOS>MOLECULE
*****
 34 38 0 0 0
SMALL
GASTEIGER

@<TRIPOS>ATOM
      1 C         144.8138  140.8651  163.4796 C.2     1  UNL1        0.2317
      2 O         146.1264  141.5057  163.8211 O.2     1  UNL1       -0.2744
      3 N         144.0172  141.3643  162.3108 N.am    1  UNL1       -0.2764
      4 C         144.5332  142.5042  161.4834 C.3     1  UNL1        0.1107
      5 C         143.7366  143.0034  160.3146 C.3     1  UNL1        0.0939
      6 N         142.4240  142.3628  159.9731 N.3     1  UNL1       -0.2695
      7 C         141.9079  141.2229  160.8004 C.3     1  UNL1        0.0939
      8 C         142.7046  140.7237  161.9693 C.3     1  UNL1        0.1107
      9 C         144.2978  139.7252  164.3069 C.3     1  UNL1        0.1305
     10 C         144.1217  137.8265  166.6230 C.3     1  UNL1        0.0323
     11 C         143.2360  139.0362  166.5758 C.ar    1  UNL1       -0.0063
     12 C         142.2622  139.2965  167.6867 C.ar    1  UNL1        0.0178
     13 C         141.3765  140.5062  167.6396 C.ar    1  UNL1        0.1050
     14 C         141.4645  141.4555  166.4816 C.ar    1  UNL1        0.1176
     15 N         142.4383  141.1952  165.3706 N.ar    1  UNL1       -0.2464
     16 C         143.3240  139.9855  165.4178 C.ar    1  UNL1        0.0643
     17 N         140.4028  140.7665  168.7504 N.ar    1  UNL1       -0.1871
     18 C         140.3804  141.9754  169.6381 C.ar    1  UNL1        0.2259
     19 N         139.2442  141.8196  170.6050 N.ar    1  UNL1       -0.1045
     20 N         138.5643  140.5143  170.3149 N.ar    1  UNL1       -0.0222
     21 N         139.2804  139.8635  169.1687 N.ar    1  UNL1       -0.0384
     22 C         141.6274  142.8620  158.8042 C.3     1  UNL1        0.0769
     23 C         140.3992  143.6921  159.0333 C.3     1  UNL1        0.0433
     24 C         139.9007  143.9246  160.4289 C.ar    1  UNL1       -0.0249
     25 C         140.3851  145.1096  161.2106 C.ar    1  UNL1       -0.0043
     26 C         139.8866  145.3421  162.6061 C.ar    1  UNL1        0.0059
     27 C         138.9037  144.3897  163.2199 C.ar    1  UNL1        0.0748
     28 C         138.4192  143.2047  162.4381 C.ar    1  UNL1        0.0233
     29 C         138.9177  142.9721  161.0427 C.ar    1  UNL1       -0.0260
     30 C         138.4333  141.7872  160.2608 C.3     1  UNL1        0.0305
     31 C         137.4561  142.4432  163.2998 C.3     1  UNL1        0.2352
     32 O         137.3453  143.1576  164.6141 O.3     1  UNL1       -0.4404
     33 C         138.2399  144.3606  164.5647 C.2     1  UNL1        0.3413
     34 O         138.4364  145.3591  165.6667 O.2     1  UNL1       -0.2449
@<TRIPOS>BOND
     1    10    11    1
     2    11    12   ar
     3    12    13   ar
     4    13    17    1
     5    17    18   ar
     6    18    19   ar
     7    19    20   ar
     8    20    21   ar
     9    13    14   ar
    10    14    15   ar
    11    15    16   ar
    12    16     9    1
    13     9     1    1
    14     1     2    2
    15     1     3   am
    16     3     4    1
    17     4     5    1
    18     5     6    1
    19     6    22    1
    20    22    23    1
    21    23    24    1
    22    24    25   ar
    23    25    26   ar
    24    26    27   ar
    25    27    28   ar
    26    28    29   ar
    27    29    30    1
    28    28    31    1
    29    31    32    1
    30    32    33    1
    31    33    34    2
    32     6     7    1
    33     7     8    1
    34    16    11   ar
    35     8     3    1
    36    21    17   ar
    37    29    24   ar
    38    33    27    1
@<TRIPOS>MOLECULE
*****
 34 38 0 0 0
SMALL
GASTEIGER

@<TRIPOS>ATOM
      1 C         144.7083  140.3350  163.0904 C.2     1  UNL1        0.2317
      2 O         145.6541  141.4626  162.8010 O.2     1  UNL1       -0.2744
      3 N         143.7541  139.8662  162.0322 N.am    1  UNL1       -0.2764
      4 C         143.7457  140.5249  160.6846 C.3     1  UNL1        0.1107
      5 C         142.7916  140.0561  159.6265 C.3     1  UNL1        0.0939
      6 N         141.8457  138.9284  159.9158 N.3     1  UNL1       -0.2695
      7 C         141.8539  138.2696  161.2634 C.3     1  UNL1        0.0939
      8 C         142.8082  138.7386  162.3216 C.3     1  UNL1        0.1107
      9 C         144.7165  139.6762  164.4379 C.3     1  UNL1        0.1305
     10 C         143.7611  137.8253  166.5971 C.3     1  UNL1        0.0323
     11 C         143.3517  139.2683  166.6107 C.ar    1  UNL1       -0.0063
     12 C         142.4646  139.7859  167.7039 C.ar    1  UNL1        0.0178
     13 C         142.0551  141.2289  167.7175 C.ar    1  UNL1        0.1050
     14 C         142.5328  142.1543  166.6380 C.ar    1  UNL1        0.1176
     15 N         143.4200  141.6367  165.5447 N.ar    1  UNL1       -0.2464
     16 C         143.8294  140.1937  165.5311 C.ar    1  UNL1        0.0643
     17 N         141.1679  141.7464  168.8107 N.ar    1  UNL1       -0.1871
     18 C         141.3439  143.0389  169.5515 C.ar    1  UNL1        0.2259
     19 N         140.2338  143.1535  170.5537 N.ar    1  UNL1       -0.1045
     20 N         139.3716  141.9320  170.4324 N.ar    1  UNL1       -0.0222
     21 N         139.9491  141.0624  169.3551 N.ar    1  UNL1       -0.0384
     22 C         140.8915  138.4596  158.8577 C.3     1  UNL1        0.0769
     23 C         139.4801  138.9673  158.8423 C.3     1  UNL1        0.0433
     24 C         139.0898  140.1247  159.7131 C.ar    1  UNL1       -0.0249
     25 C         139.3355  141.5294  159.2480 C.ar    1  UNL1       -0.0043
     26 C         138.9452  142.6868  160.1187 C.ar    1  UNL1        0.0059
     27 C         138.3092  142.4394  161.4545 C.ar    1  UNL1        0.0748
     28 C         138.0636  141.0347  161.9196 C.ar    1  UNL1        0.0233
     29 C         138.4538  139.8773  161.0489 C.ar    1  UNL1       -0.0260
     30 C         138.2082  138.4725  161.5139 C.3     1  UNL1        0.0305
     31 C         137.4242  141.1002  163.2749 C.3     1  UNL1        0.2352
     32 O         137.2747  142.5455  163.6474 O.3     1  UNL1       -0.4404
     33 C         137.8217  143.3732  162.5224 C.2     1  UNL1        0.3413
     34 O         137.8722  144.8715  162.4738 O.2     1  UNL1       -0.2449
@<TRIPOS>BOND
     1    10    11    1
     2    11    12   ar
     3    12    13   ar
     4    13    17    1
     5    17    18   ar
     6    18    19   ar
     7    19    20   ar
     8    20    21   ar
     9    13    14   ar
    10    14    15   ar
    11    15    16   ar
    12    16     9    1
    13     9     1    1
    14     1     2    2
    15     1     3   am
    16     3     4    1
    17     4     5    1
    18     5     6    1
    19     6    22    1
    20    22    23    1
    21    23    24    1
    22    24    25   ar
    23    25    26   ar
    24    26    27   ar
    25    27    28   ar
    26    28    29   ar
    27    29    30    1
    28    28    31    1
    29    31    32    1
    30    32    33    1
    31    33    34    2
    32     6     7    1
    33     7     8    1
    34    16    11   ar
    35     8     3    1
    36    21    17   ar
    37    29    24   ar
    38    33    27    1
@<TRIPOS>MOLECULE
*****
 34 38 0 0 0
SMALL
GASTEIGER

@<TRIPOS>ATOM
      1 C         144.1100  139.8752  163.1662 C.2     1  UNL1        0.2317
      2 O         145.1644  140.6204  162.4027 O.2     1  UNL1       -0.2744
      3 N         142.7628  139.6401  162.5499 N.am    1  UNL1       -0.2764
      4 C         142.4700  140.1502  161.1700 C.3     1  UNL1        0.1107
      5 C         141.1228  139.9151  160.5538 C.3     1  UNL1        0.0939
      6 N         140.0684  139.1700  161.3173 N.3     1  UNL1       -0.2695
      7 C         140.3612  138.6599  162.6972 C.3     1  UNL1        0.0939
      8 C         141.7085  138.8950  163.3135 C.3     1  UNL1        0.1107
      9 C         144.4028  139.3651  164.5461 C.3     1  UNL1        0.1305
     10 C         143.6955  137.6337  166.8918 C.3     1  UNL1        0.0323
     11 C         143.3438  139.0918  166.9028 C.ar    1  UNL1       -0.0063
     12 C         142.6385  139.6843  168.0866 C.ar    1  UNL1        0.0178
     13 C         142.2867  141.1425  168.0977 C.ar    1  UNL1        0.1050
     14 C         142.6404  142.0082  166.9248 C.ar    1  UNL1        0.1176
     15 N         143.3458  141.4157  165.7409 N.ar    1  UNL1       -0.2464
     16 C         143.6975  139.9575  165.7300 C.ar    1  UNL1        0.0643
     17 N         141.5814  141.7349  169.2815 N.ar    1  UNL1       -0.1871
     18 C         141.4624  141.1105  170.6402 C.ar    1  UNL1        0.2259
     19 N         140.6786  142.0455  171.5128 N.ar    1  UNL1       -0.1045
     20 N         140.3133  143.2478  170.6936 N.ar    1  UNL1       -0.0222
     21 N         140.8713  143.0557  169.3145 N.ar    1  UNL1       -0.0384
     22 C         138.7213  138.9349  160.7010 C.3     1  UNL1        0.0769
     23 C         137.6162  139.9269  160.9127 C.3     1  UNL1        0.0433
     24 C         137.8233  141.0960  161.8295 C.ar    1  UNL1       -0.0249
     25 C         137.4619  140.9841  163.2810 C.ar    1  UNL1       -0.0043
     26 C         137.6690  142.1531  164.1977 C.ar    1  UNL1        0.0059
     27 C         138.2374  143.4341  163.6630 C.ar    1  UNL1        0.0748
     28 C         138.5988  143.5461  162.2115 C.ar    1  UNL1        0.0233
     29 C         138.3918  142.3770  161.2947 C.ar    1  UNL1       -0.0260
     30 C         138.7531  142.4889  159.8431 C.3     1  UNL1        0.0305
     31 C         139.1363  144.9259  161.9726 C.3     1  UNL1        0.2352
     32 O         139.1071  145.6668  163.2766 O.3     1  UNL1       -0.4404
     33 C         138.5516  144.7448  164.3213 C.2     1  UNL1        0.3413
     34 O         138.3463  145.0755  165.7699 O.2     1  UNL1       -0.2449
@<TRIPOS>BOND
     1    10    11    1
     2    11    12   ar
     3    12    13   ar
     4    13    17    1
     5    17    18   ar
     6    18    19   ar
     7    19    20   ar
     8    20    21   ar
     9    13    14   ar
    10    14    15   ar
    11    15    16   ar
    12    16     9    1
    13     9     1    1
    14     1     2    2
    15     1     3   am
    16     3     4    1
    17     4     5    1
    18     5     6    1
    19     6    22    1
    20    22    23    1
    21    23    24    1
    22    24    25   ar
    23    25    26   ar
    24    26    27   ar
    25    27    28   ar
    26    28    29   ar
    27    29    30    1
    28    28    31    1
    29    31    32    1
    30    32    33    1
    31    33    34    2
    32     6     7    1
    33     7     8    1
    34    16    11   ar
    35     8     3    1
    36    21    17   ar
    37    29    24   ar
    38    33    27    1
@<TRIPOS>MOLECULE
*****
 34 38 0 0 0
SMALL
GASTEIGER

@<TRIPOS>ATOM
      1 C         140.3538  137.8429  163.3789 C.2     1  UNL1        0.2317
      2 O         138.9037  137.5082  163.1914 O.2     1  UNL1       -0.2744
      3 N         141.1592  138.3616  162.2247 N.am    1  UNL1       -0.2764
      4 C         140.5145  138.5458  160.8828 C.3     1  UNL1        0.1107
      5 C         141.3200  139.0645  159.7287 C.3     1  UNL1        0.0939
      6 N         142.7701  139.3992  159.9163 N.3     1  UNL1       -0.2695
      7 C         143.4148  139.2151  161.2581 C.3     1  UNL1        0.0939
      8 C         142.6093  138.6963  162.4123 C.3     1  UNL1        0.1107
      9 C         140.9985  137.6588  164.7208 C.3     1  UNL1        0.1305
     10 C         143.3615  138.8761  166.1117 C.3     1  UNL1        0.0323
     11 C         141.9712  139.2886  166.4950 C.ar    1  UNL1       -0.0063
     12 C         141.7622  140.3096  167.5737 C.ar    1  UNL1        0.0178
     13 C         140.3719  140.7221  167.9571 C.ar    1  UNL1        0.1050
     14 C         139.1905  140.1134  167.2616 C.ar    1  UNL1        0.1176
     15 N         139.3994  139.0923  166.1828 N.ar    1  UNL1       -0.2464
     16 C         140.7897  138.6799  165.7995 C.ar    1  UNL1        0.0643
     17 N         140.1631  141.7432  169.0358 N.ar    1  UNL1       -0.1871
     18 C         140.5290  143.1958  168.9577 C.ar    1  UNL1        0.2259
     19 N         140.1437  143.8412  170.2557 N.ar    1  UNL1       -0.1045
     20 N         139.5397  142.7876  171.1361 N.ar    1  UNL1       -0.0222
     21 N         139.5517  141.4909  170.3821 N.ar    1  UNL1       -0.0384
     22 C         143.5754  139.9179  158.7621 C.3     1  UNL1        0.0769
     23 C         143.8677  141.3850  158.6507 C.3     1  UNL1        0.0433
     24 C         143.7146  142.2734  159.8496 C.ar    1  UNL1       -0.0249
     25 C         144.8554  142.4421  160.8086 C.ar    1  UNL1       -0.0043
     26 C         144.7023  143.3305  162.0075 C.ar    1  UNL1        0.0059
     27 C         143.4082  144.0502  162.2473 C.ar    1  UNL1        0.0748
     28 C         142.2673  143.8815  161.2882 C.ar    1  UNL1        0.0233
     29 C         142.4204  142.9931  160.0893 C.ar    1  UNL1       -0.0260
     30 C         141.2795  142.8243  159.1302 C.3     1  UNL1        0.0305
     31 C         141.1201  144.7123  161.7817 C.3     1  UNL1        0.2352
     32 O         141.5520  145.3945  163.0459 O.3     1  UNL1       -0.4404
     33 C         142.9661  144.9853  163.3336 C.2     1  UNL1        0.3413
     34 O         143.7929  145.4327  164.5024 O.2     1  UNL1       -0.2449
@<TRIPOS>BOND
     1    10    11    1
     2    11    12   ar
     3    12    13   ar
     4    13    17    1
     5    17    18   ar
     6    18    19   ar
     7    19    20   ar
     8    20    21   ar
     9    13    14   ar
    10    14    15   ar
    11    15    16   ar
    12    16     9    1
    13     9     1    1
    14     1     2    2
    15     1     3   am
    16     3     4    1
    17     4     5    1
    18     5     6    1
    19     6    22    1
    20    22    23    1
    21    23    24    1
    22    24    25   ar
    23    25    26   ar
    24    26    27   ar
    25    27    28   ar
    26    28    29   ar
    27    29    30    1
    28    28    31    1
    29    31    32    1
    30    32    33    1
    31    33    34    2
    32     6     7    1
    33     7     8    1
    34    16    11   ar
    35     8     3    1
    36    21    17   ar
    37    29    24   ar
    38    33    27    1
@<TRIPOS>MOLECULE
*****
 34 38 0 0 0
SMALL
GASTEIGER

@<TRIPOS>ATOM
      1 C         137.7733  140.5542  163.1774 C.2     1  UNL1        0.2317
      2 O         136.7784  141.6478  162.9239 O.2     1  UNL1       -0.2744
      3 N         138.6592  140.0739  162.0663 N.am    1  UNL1       -0.2764
      4 C         138.5503  140.6871  160.7017 C.3     1  UNL1        0.1107
      5 C         139.4362  140.2068  159.5907 C.3     1  UNL1        0.0939
      6 N         140.4311  139.1132  159.8442 N.3     1  UNL1       -0.2695
      7 C         140.5400  138.4999  161.2088 C.3     1  UNL1        0.0939
      8 C         139.6540  138.9803  162.3198 C.3     1  UNL1        0.1107
      9 C         137.8822  139.9409  164.5419 C.3     1  UNL1        0.1305
     10 C         138.0833  138.7283  167.2786 C.3     1  UNL1        0.0323
     11 C         138.9147  139.9260  166.9260 C.ar    1  UNL1       -0.0063
     12 C         139.8466  140.5174  167.9417 C.ar    1  UNL1        0.0178
     13 C         140.6780  141.7152  167.5891 C.ar    1  UNL1        0.1050
     14 C         140.5775  142.3214  166.2208 C.ar    1  UNL1        0.1176
     15 N         139.6455  141.7299  165.2050 N.ar    1  UNL1       -0.2464
     16 C         138.8141  140.5322  165.5576 C.ar    1  UNL1        0.0643
     17 N         141.6099  142.3065  168.6049 N.ar    1  UNL1       -0.1871
     18 C         143.0840  142.0475  168.7054 C.ar    1  UNL1        0.2259
     19 N         143.6164  142.8417  169.8611 N.ar    1  UNL1       -0.1045
     20 N         142.4714  143.5916  170.4749 N.ar    1  UNL1       -0.0222
     21 N         141.2314  143.2608  169.6985 N.ar    1  UNL1       -0.0384
     22 C         141.3170  138.6329  158.7332 C.3     1  UNL1        0.0769
     23 C         142.6753  139.2397  158.5413 C.3     1  UNL1        0.0433
     24 C         143.1400  140.3403  159.4485 C.ar    1  UNL1       -0.0249
     25 C         142.8509  141.7706  159.1016 C.ar    1  UNL1       -0.0043
     26 C         143.3155  142.8711  160.0087 C.ar    1  UNL1        0.0059
     27 C         144.0694  142.5412  161.2629 C.ar    1  UNL1        0.0748
     28 C         144.3586  141.1108  161.6099 C.ar    1  UNL1        0.0233
     29 C         143.8939  140.0103  160.7027 C.ar    1  UNL1       -0.0260
     30 C         144.1830  138.5799  161.0496 C.3     1  UNL1        0.0305
     31 C         145.1170  141.0919  162.9038 C.3     1  UNL1        0.2352
     32 O         145.2966  142.5106  163.3566 O.3     1  UNL1       -0.4404
     33 C         144.6492  143.4063  162.3424 C.2     1  UNL1        0.3413
     34 O         144.5916  144.9042  162.3981 O.2     1  UNL1       -0.2449
@<TRIPOS>BOND
     1    10    11    1
     2    11    12   ar
     3    12    13   ar
     4    13    17    1
     5    17    18   ar
     6    18    19   ar
     7    19    20   ar
     8    20    21   ar
     9    13    14   ar
    10    14    15   ar
    11    15    16   ar
    12    16     9    1
    13     9     1    1
    14     1     2    2
    15     1     3   am
    16     3     4    1
    17     4     5    1
    18     5     6    1
    19     6    22    1
    20    22    23    1
    21    23    24    1
    22    24    25   ar
    23    25    26   ar
    24    26    27   ar
    25    27    28   ar
    26    28    29   ar
    27    29    30    1
    28    28    31    1
    29    31    32    1
    30    32    33    1
    31    33    34    2
    32     6     7    1
    33     7     8    1
    34    16    11   ar
    35     8     3    1
    36    21    17   ar
    37    29    24   ar
    38    33    27    1
@<TRIPOS>MOLECULE
*****
 34 38 0 0 0
SMALL
GASTEIGER

@<TRIPOS>ATOM
      1 C         139.7563  138.2076  163.4049 C.2     1  UNL1        0.2317
      2 O         140.4710  136.9898  162.8987 O.2     1  UNL1       -0.2744
      3 N         139.7589  139.4698  162.5944 N.am    1  UNL1       -0.2764
      4 C         140.4760  139.5143  161.2777 C.3     1  UNL1        0.1107
      5 C         140.4785  140.7764  160.4673 C.3     1  UNL1        0.0939
      6 N         139.7638  141.9942  160.9735 N.3     1  UNL1       -0.2695
      7 C         139.0467  141.9499  162.2902 C.3     1  UNL1        0.0939
      8 C         139.0442  140.6876  163.1007 C.3     1  UNL1        0.1107
      9 C         139.0392  138.1633  164.7216 C.3     1  UNL1        0.1305
     10 C         137.3718  138.4505  167.1990 C.3     1  UNL1        0.0323
     11 C         138.7181  139.1073  167.1208 C.ar    1  UNL1       -0.0063
     12 C         139.2307  139.9077  168.2811 C.ar    1  UNL1        0.0178
     13 C         140.5770  140.5645  168.2029 C.ar    1  UNL1        0.1050
     14 C         141.4107  140.4209  166.9643 C.ar    1  UNL1        0.1176
     15 N         140.8980  139.6204  165.8038 N.ar    1  UNL1       -0.2464
     16 C         139.5517  138.9636  165.8821 C.ar    1  UNL1        0.0643
     17 N         141.0895  141.3649  169.3634 N.ar    1  UNL1       -0.1871
     18 C         141.6154  142.7684  169.3028 C.ar    1  UNL1        0.2259
     19 N         142.0170  143.1731  170.6901 N.ar    1  UNL1       -0.1045
     20 N         141.7395  142.0198  171.6082 N.ar    1  UNL1       -0.0222
     21 N         141.1662  140.9023  170.7882 N.ar    1  UNL1       -0.0384
     22 C         139.7663  143.2564  160.1630 C.3     1  UNL1        0.0769
     23 C         140.8410  144.2813  160.3744 C.3     1  UNL1        0.0433
     24 C         141.7945  144.1421  161.5240 C.ar    1  UNL1       -0.0249
     25 C         141.5449  144.8898  162.8001 C.ar    1  UNL1       -0.0043
     26 C         142.4984  144.7507  163.9497 C.ar    1  UNL1        0.0059
     27 C         143.7014  143.8638  163.8231 C.ar    1  UNL1        0.0748
     28 C         143.9510  143.1160  162.5470 C.ar    1  UNL1        0.0233
     29 C         142.9976  143.2552  161.3974 C.ar    1  UNL1       -0.0260
     30 C         143.2472  142.5075  160.1212 C.3     1  UNL1        0.0305
     31 C         145.2123  142.3215  162.7143 C.3     1  UNL1        0.2352
     32 O         145.7422  142.5783  164.0939 O.3     1  UNL1       -0.4404
     33 C         144.8084  143.5314  164.7792 C.2     1  UNL1        0.3413
     34 O         144.9558  144.0594  166.1754 O.2     1  UNL1       -0.2449
@<TRIPOS>BOND
     1    10    11    1
     2    11    12   ar
     3    12    13   ar
     4    13    17    1
     5    17    18   ar
     6    18    19   ar
     7    19    20   ar
     8    20    21   ar
     9    13    14   ar
    10    14    15   ar
    11    15    16   ar
    12    16     9    1
    13     9     1    1
    14     1     2    2
    15     1     3   am
    16     3     4    1
    17     4     5    1
    18     5     6    1
    19     6    22    1
    20    22    23    1
    21    23    24    1
    22    24    25   ar
    23    25    26   ar
    24    26    27   ar
    25    27    28   ar
    26    28    29   ar
    27    29    30    1
    28    28    31    1
    29    31    32    1
    30    32    33    1
    31    33    34    2
    32     6     7    1
    33     7     8    1
    34    16    11   ar
    35     8     3    1
    36    21    17   ar
    37    29    24   ar
    38    33    27    1
@<TRIPOS>MOLECULE
*****
 34 38 0 0 0
SMALL
GASTEIGER

@<TRIPOS>ATOM
      1 C         142.8995  144.0658  162.2884 C.2     1  UNL1        0.2317
      2 O         144.3771  144.3045  162.1893 O.2     1  UNL1       -0.2744
      3 N         142.2204  143.1518  161.3119 N.am    1  UNL1       -0.2764
      4 C         143.0188  142.4766  160.2364 C.3     1  UNL1        0.1107
      5 C         142.3396  141.5627  159.2600 C.3     1  UNL1        0.0939
      6 N         140.8620  141.3239  159.3590 N.3     1  UNL1       -0.2695
      7 C         140.0636  141.9991  160.4345 C.3     1  UNL1        0.0939
      8 C         140.7429  142.9131  161.4109 C.3     1  UNL1        0.1107
      9 C         142.1011  144.7410  163.3638 C.3     1  UNL1        0.1305
     10 C         139.2292  144.9107  164.2143 C.3     1  UNL1        0.0323
     11 C         140.1858  144.0393  164.9729 C.ar    1  UNL1       -0.0063
     12 C         139.7064  143.2527  166.1567 C.ar    1  UNL1        0.0178
     13 C         140.6630  142.3812  166.9154 C.ar    1  UNL1        0.1050
     14 C         142.0990  142.2964  166.4902 C.ar    1  UNL1        0.1176
     15 N         142.5783  143.0830  165.3063 N.ar    1  UNL1       -0.2464
     16 C         141.6217  143.9544  164.5476 C.ar    1  UNL1        0.0643
     17 N         140.1836  141.5947  168.0992 N.ar    1  UNL1       -0.1871
     18 C         140.1726  142.0641  169.5238 C.ar    1  UNL1        0.2259
     19 N         139.6132  140.9601  170.3713 N.ar    1  UNL1       -0.1045
     20 N         139.2784  139.8083  169.4705 N.ar    1  UNL1       -0.0222
     21 N         139.6310  140.2006  168.0662 N.ar    1  UNL1       -0.0384
     22 C         140.1829  140.4100  158.3826 C.3     1  UNL1        0.0769
     23 C         139.8154  139.0145  158.7921 C.3     1  UNL1        0.0433
     24 C         139.6530  138.6774  160.2448 C.ar    1  UNL1       -0.0249
     25 C         138.3094  138.8064  160.8989 C.ar    1  UNL1       -0.0043
     26 C         138.1470  138.4693  162.3515 C.ar    1  UNL1        0.0059
     27 C         139.3282  138.0032  163.1499 C.ar    1  UNL1        0.0748
     28 C         140.6719  137.8743  162.4958 C.ar    1  UNL1        0.0233
     29 C         140.8343  138.2114  161.0432 C.ar    1  UNL1       -0.0260
     30 C         142.1780  138.0824  160.3889 C.3     1  UNL1        0.0305
     31 C         141.6465  137.3934  163.5296 C.3     1  UNL1        0.2352
     32 O         140.9052  137.2252  164.8227 O.3     1  UNL1       -0.4404
     33 C         139.4724  137.6021  164.5881 C.2     1  UNL1        0.3413
     34 O         138.3763  137.5814  165.6118 O.2     1  UNL1       -0.2449
@<TRIPOS>BOND
     1    10    11    1
     2    11    12   ar
     3    12    13   ar
     4    13    17    1
     5    17    18   ar
     6    18    19   ar
     7    19    20   ar
     8    20    21   ar
     9    13    14   ar
    10    14    15   ar
    11    15    16   ar
    12    16     9    1
    13     9     1    1
    14     1     2    2
    15     1     3   am
    16     3     4    1
    17     4     5    1
    18     5     6    1
    19     6    22    1
    20    22    23    1
    21    23    24    1
    22    24    25   ar
    23    25    26   ar
    24    26    27   ar
    25    27    28   ar
    26    28    29   ar
    27    29    30    1
    28    28    31    1
    29    31    32    1
    30    32    33    1
    31    33    34    2
    32     6     7    1
    33     7     8    1
    34    16    11   ar
    35     8     3    1
    36    21    17   ar
    37    29    24   ar
    38    33    27    1
