@<TRIPOS>MOLECULE
*****
 35 37 0 0 0
SMALL
GASTEIGER

@<TRIPOS>ATOM
      1 C         141.8082  140.0036  168.6921 C.ar    1  UNL1        0.0162
      2 C         140.3102  139.9437  168.6443 C.ar    1  UNL1        0.0012
      3 C         139.5767  140.4639  167.4437 C.ar    1  UNL1       -0.0003
      4 C         140.3412  141.0439  166.2909 C.ar    1  UNL1       -0.0039
      5 C         141.8392  141.1038  166.3387 C.ar    1  UNL1       -0.0177
      6 C         142.5727  140.5836  167.5393 C.ar    1  UNL1       -0.0027
      7 C         142.3193  141.7264  165.0612 C.3     1  UNL1        0.0526
      8 C         141.1179  142.0513  164.2239 C.ar    1  UNL1       -0.0177
      9 C         140.9791  142.6768  162.8676 C.ar    1  UNL1       -0.0027
     10 C         139.6178  142.8805  162.2713 C.ar    1  UNL1        0.0162
     11 C         138.3953  142.4587  163.0313 C.ar    1  UNL1        0.0012
     12 C         138.5341  141.8332  164.3877 C.ar    1  UNL1       -0.0003
     13 C         139.8954  141.6295  164.9839 C.ar    1  UNL1       -0.0039
     14 C         142.7661  140.3741  171.0785 C.3     1  UNL1        0.0553
     15 C         142.5417  139.4834  169.8927 C.2     1  UNL1        0.0935
     16 N         143.0508  138.0726  169.9074 N.2     1  UNL1       -0.1152
     17 N         143.7843  137.5525  171.1080 N.pl3   1  UNL1       -0.1547
     18 H         143.8249  138.0906  171.9314 H       1  UNL1        0.2922
     19 C         144.4560  136.2123  171.0540 C.cat   1  UNL1        0.3997
     20 N         145.4038  135.8929  169.9362 N.pl3   1  UNL1       -0.1280
     21 N         144.1799  135.1916  172.1180 N.pl3   1  UNL1       -0.2876
     22 H         145.5851  136.5628  169.2379 H       1  UNL1        0.3062
     23 H         143.5578  135.4012  172.8516 H       1  UNL1        0.2547
     24 H         144.6207  134.3120  172.0825 H       1  UNL1        0.2547
     25 C         139.4791  143.5059  160.9150 C.2     1  UNL1        0.0935
     26 C         138.8705  142.7254  159.7878 C.3     1  UNL1        0.0553
     27 N         139.9488  144.9119  160.6859 N.2     1  UNL1       -0.1152
     28 N         139.8101  145.5374  159.3296 N.pl3   1  UNL1       -0.1547
     29 H         138.9423  145.9033  159.0427 H       1  UNL1        0.2922
     30 C         140.9935  145.6053  158.4104 C.cat   1  UNL1        0.3997
     31 N         142.2637  144.8925  158.7690 N.pl3   1  UNL1       -0.1280
     32 N         140.9068  146.3861  157.1325 N.pl3   1  UNL1       -0.2876
     33 H         142.3207  144.3800  159.6077 H       1  UNL1        0.3062
     34 H         140.0732  146.8539  156.8971 H       1  UNL1        0.2547
     35 H         141.6835  146.4306  156.5292 H       1  UNL1        0.2547
@<TRIPOS>BOND
     1    14    15    1
     2    15    16    2
     3    16    17    1
     4    17    19    1
     5    19    20    2
     6    19    21    1
     7    15     1    1
     8     1     2   ar
     9     2     3   ar
    10     3     4   ar
    11     4     5   ar
    12     5     6   ar
    13     5     7    1
    14     7     8    1
    15     8     9   ar
    16     9    10   ar
    17    10    25    1
    18    25    26    1
    19    25    27    2
    20    27    28    1
    21    28    30    1
    22    30    31    2
    23    30    32    1
    24    10    11   ar
    25    11    12   ar
    26    12    13   ar
    27     6     1   ar
    28    13     8   ar
    29    13     4    1
    30    17    18    1
    31    20    22    1
    32    21    23    1
    33    21    24    1
    34    28    29    1
    35    31    33    1
    36    32    34    1
    37    32    35    1
@<TRIPOS>MOLECULE
*****
 35 37 0 0 0
SMALL
GASTEIGER

@<TRIPOS>ATOM
      1 C         140.9486  141.6093  166.5810 C.ar    1  UNL1        0.0162
      2 C         140.1289  142.8576  166.7216 C.ar    1  UNL1        0.0012
      3 C         139.9223  143.7564  165.5386 C.ar    1  UNL1       -0.0003
      4 C         140.5354  143.4068  164.2150 C.ar    1  UNL1       -0.0039
      5 C         141.3550  142.1585  164.0744 C.ar    1  UNL1       -0.0177
      6 C         141.5616  141.2597  165.2574 C.ar    1  UNL1       -0.0027
      7 C         141.8315  142.0743  162.6546 C.3     1  UNL1        0.0526
      8 C         141.3064  143.2706  161.9177 C.ar    1  UNL1       -0.0177
      9 C         141.4541  143.7165  160.4931 C.ar    1  UNL1       -0.0027
     10 C         140.8007  144.9859  160.0329 C.ar    1  UNL1        0.0162
     11 C         139.9996  145.8095  160.9973 C.ar    1  UNL1        0.0012
     12 C         139.8519  145.3636  162.4220 C.ar    1  UNL1       -0.0003
     13 C         140.5053  144.0942  162.8821 C.ar    1  UNL1       -0.0039
     14 C         139.9742  140.2153  168.5450 C.3     1  UNL1        0.0553
     15 C         141.1552  140.7105  167.7640 C.2     1  UNL1        0.0935
     16 N         142.5428  140.3069  168.1660 N.2     1  UNL1       -0.1152
     17 N         142.7494  139.4081  169.3490 N.pl3   1  UNL1       -0.1547
     18 H         142.6869  138.4314  169.2421 H       1  UNL1        0.2922
     19 C         143.0511  139.9974  170.6950 C.cat   1  UNL1        0.3997
     20 N         144.1019  139.3766  171.5671 N.pl3   1  UNL1       -0.1280
     21 N         142.3021  141.2075  171.1689 N.pl3   1  UNL1       -0.2876
     22 H         144.5935  138.5824  171.2561 H       1  UNL1        0.3062
     23 H         141.6125  141.6150  170.5965 H       1  UNL1        0.2547
     24 H         142.5002  141.5944  172.0523 H       1  UNL1        0.2547
     25 C         140.9484  145.4318  158.6084 C.2     1  UNL1        0.0935
     26 C         142.0255  144.8432  157.7461 C.3     1  UNL1        0.0553
     27 N         140.0190  146.4662  158.0461 N.2     1  UNL1       -0.1152
     28 N         140.1667  146.9120  156.6215 N.pl3   1  UNL1       -0.1547
     29 H         141.0307  146.8097  156.1608 H       1  UNL1        0.2922
     30 C         138.9980  147.5138  155.8990 C.cat   1  UNL1        0.3997
     31 N         138.1789  146.6724  154.9658 N.pl3   1  UNL1       -0.1280
     32 N         138.6484  148.9573  156.1097 N.pl3   1  UNL1       -0.2876
     33 H         138.4083  145.7250  154.8274 H       1  UNL1        0.3062
     34 H         139.1860  149.5097  156.7222 H       1  UNL1        0.2547
     35 H         137.8813  149.3523  155.6355 H       1  UNL1        0.2547
@<TRIPOS>BOND
     1    14    15    1
     2    15    16    2
     3    16    17    1
     4    17    19    1
     5    19    20    2
     6    19    21    1
     7    15     1    1
     8     1     2   ar
     9     2     3   ar
    10     3     4   ar
    11     4     5   ar
    12     5     6   ar
    13     5     7    1
    14     7     8    1
    15     8     9   ar
    16     9    10   ar
    17    10    25    1
    18    25    26    1
    19    25    27    2
    20    27    28    1
    21    28    30    1
    22    30    31    2
    23    30    32    1
    24    10    11   ar
    25    11    12   ar
    26    12    13   ar
    27     6     1   ar
    28    13     8   ar
    29    13     4    1
    30    17    18    1
    31    20    22    1
    32    21    23    1
    33    21    24    1
    34    28    29    1
    35    31    33    1
    36    32    34    1
    37    32    35    1
@<TRIPOS>MOLECULE
*****
 35 37 0 0 0
SMALL
GASTEIGER

@<TRIPOS>ATOM
      1 C         140.8843  145.1293  159.8571 C.ar    1  UNL1        0.0162
      2 C         139.9641  145.8475  160.7990 C.ar    1  UNL1        0.0012
      3 C         139.8346  145.3845  162.2199 C.ar    1  UNL1       -0.0003
      4 C         140.6252  144.2031  162.6987 C.ar    1  UNL1       -0.0039
      5 C         141.5453  143.4849  161.7567 C.ar    1  UNL1       -0.0177
      6 C         141.6749  143.9480  160.3359 C.ar    1  UNL1       -0.0027
      7 C         142.1927  142.3599  162.5087 C.3     1  UNL1        0.0526
      8 C         141.6727  142.3829  163.9155 C.ar    1  UNL1       -0.0177
      9 C         141.9561  141.5138  165.1047 C.ar    1  UNL1       -0.0027
     10 C         141.2707  141.7838  166.4114 C.ar    1  UNL1        0.0162
     11 C         140.3019  142.9230  166.5288 C.ar    1  UNL1        0.0012
     12 C         140.0185  143.7922  165.3395 C.ar    1  UNL1       -0.0003
     13 C         140.7039  143.5221  164.0329 C.ar    1  UNL1       -0.0039
     14 C         142.2152  145.2029  157.6270 C.3     1  UNL1        0.0553
     15 C         141.0138  145.5924  158.4362 C.2     1  UNL1        0.0935
     16 N         139.9419  146.4450  157.8246 N.2     1  UNL1       -0.1152
     17 N         140.0715  146.9080  156.4037 N.pl3   1  UNL1       -0.1547
     18 H         140.9463  146.8758  155.9533 H       1  UNL1        0.2922
     19 C         138.8681  147.4203  155.6692 C.cat   1  UNL1        0.3997
     20 N         138.0391  146.4830  154.8421 N.pl3   1  UNL1       -0.1280
     21 N         138.4937  148.8699  155.7618 N.pl3   1  UNL1       -0.2876
     22 H         138.2847  145.5316  154.7813 H       1  UNL1        0.3062
     23 H         139.0378  149.4851  156.3047 H       1  UNL1        0.2547
     24 H         137.7039  149.2061  155.2797 H       1  UNL1        0.2547
     25 C         141.5541  140.9147  167.6006 C.2     1  UNL1        0.0935
     26 C         142.5655  139.8116  167.4994 C.3     1  UNL1        0.0553
     27 N         140.8261  141.1487  168.8911 N.2     1  UNL1       -0.1152
     28 N         141.1095  140.2795  170.0803 N.pl3   1  UNL1       -0.1547
     29 H         140.5857  139.4588  170.2262 H       1  UNL1        0.2922
     30 C         142.1909  140.6609  171.0473 C.cat   1  UNL1        0.3997
     31 N         142.0514  141.9026  171.8772 N.pl3   1  UNL1       -0.1280
     32 N         143.4121  139.8006  171.1844 N.pl3   1  UNL1       -0.2876
     33 H         141.2500  142.4674  171.7872 H       1  UNL1        0.3062
     34 H         143.5037  138.9856  170.6397 H       1  UNL1        0.2547
     35 H         144.1218  140.0509  171.8190 H       1  UNL1        0.2547
@<TRIPOS>BOND
     1    14    15    1
     2    15    16    2
     3    16    17    1
     4    17    19    1
     5    19    20    2
     6    19    21    1
     7    15     1    1
     8     1     2   ar
     9     2     3   ar
    10     3     4   ar
    11     4     5   ar
    12     5     6   ar
    13     5     7    1
    14     7     8    1
    15     8     9   ar
    16     9    10   ar
    17    10    25    1
    18    25    26    1
    19    25    27    2
    20    27    28    1
    21    28    30    1
    22    30    31    2
    23    30    32    1
    24    10    11   ar
    25    11    12   ar
    26    12    13   ar
    27     6     1   ar
    28    13     8   ar
    29    13     4    1
    30    17    18    1
    31    20    22    1
    32    21    23    1
    33    21    24    1
    34    28    29    1
    35    31    33    1
    36    32    34    1
    37    32    35    1
@<TRIPOS>MOLECULE
*****
 35 37 0 0 0
SMALL
GASTEIGER

@<TRIPOS>ATOM
      1 C         139.9848  141.8368  166.5524 C.ar    1  UNL1        0.0162
      2 C         139.2136  140.9557  165.6150 C.ar    1  UNL1        0.0012
      3 C         139.1528  141.2871  164.1533 C.ar    1  UNL1       -0.0003
      4 C         139.8632  142.4998  163.6291 C.ar    1  UNL1       -0.0039
      5 C         140.6344  143.3809  164.5665 C.ar    1  UNL1       -0.0177
      6 C         140.6952  143.0494  166.0282 C.ar    1  UNL1       -0.0027
      7 C         141.2295  144.5011  163.7658 C.3     1  UNL1        0.0526
      8 C         140.8260  144.3123  162.3335 C.ar    1  UNL1       -0.0177
      9 C         141.1184  145.1068  161.0953 C.ar    1  UNL1       -0.0027
     10 C         140.5664  144.6644  159.7725 C.ar    1  UNL1        0.0162
     11 C         139.7220  143.4275  159.6880 C.ar    1  UNL1        0.0012
     12 C         139.4296  142.6330  160.9263 C.ar    1  UNL1       -0.0003
     13 C         139.9816  143.0754  162.2490 C.ar    1  UNL1       -0.0039
     14 C         139.7250  140.1168  168.4822 C.3     1  UNL1        0.0553
     15 C         140.0457  141.5053  168.0140 C.2     1  UNL1        0.0935
     16 N         140.4272  142.5623  169.0076 N.2     1  UNL1       -0.1152
     17 N         140.4880  142.2308  170.4692 N.pl3   1  UNL1       -0.1547
     18 H         139.6569  142.1522  170.9911 H       1  UNL1        0.2922
     19 C         141.8151  142.0191  171.1357 C.cat   1  UNL1        0.3997
     20 N         142.1002  140.7292  171.8462 N.pl3   1  UNL1       -0.1280
     21 N         142.8570  143.0973  171.0915 N.pl3   1  UNL1       -0.2876
     22 H         141.4164  140.0216  171.8752 H       1  UNL1        0.3062
     23 H         142.6698  143.9438  170.6251 H       1  UNL1        0.2547
     24 H         143.7280  142.9583  171.5289 H       1  UNL1        0.2547
     25 C         140.8588  145.4589  158.5342 C.2     1  UNL1        0.0935
     26 C         142.2569  145.5184  157.9940 C.3     1  UNL1        0.0553
     27 N         139.7531  146.1939  157.8362 N.2     1  UNL1       -0.1152
     28 N         140.0454  146.9884  156.5980 N.pl3   1  UNL1       -0.1547
     29 H         140.9754  147.1077  156.2979 H       1  UNL1        0.2922
     30 C         138.9208  147.6011  155.8171 C.cat   1  UNL1        0.3997
     31 N         138.5999  149.0572  155.9809 N.pl3   1  UNL1       -0.1280
     32 N         138.1170  146.7577  154.8723 N.pl3   1  UNL1       -0.2876
     33 H         139.1274  149.6108  156.6010 H       1  UNL1        0.3062
     34 H         138.3276  145.8020  154.7647 H       1  UNL1        0.2547
     35 H         137.3789  147.1598  154.3597 H       1  UNL1        0.2547
@<TRIPOS>BOND
     1    14    15    1
     2    15    16    2
     3    16    17    1
     4    17    19    1
     5    19    20    2
     6    19    21    1
     7    15     1    1
     8     1     2   ar
     9     2     3   ar
    10     3     4   ar
    11     4     5   ar
    12     5     6   ar
    13     5     7    1
    14     7     8    1
    15     8     9   ar
    16     9    10   ar
    17    10    25    1
    18    25    26    1
    19    25    27    2
    20    27    28    1
    21    28    30    1
    22    30    31    2
    23    30    32    1
    24    10    11   ar
    25    11    12   ar
    26    12    13   ar
    27     6     1   ar
    28    13     8   ar
    29    13     4    1
    30    17    18    1
    31    20    22    1
    32    21    23    1
    33    21    24    1
    34    28    29    1
    35    31    33    1
    36    32    34    1
    37    32    35    1
@<TRIPOS>MOLECULE
*****
 35 37 0 0 0
SMALL
GASTEIGER

@<TRIPOS>ATOM
      1 C         140.0309  139.6971  167.2671 C.ar    1  UNL1        0.0162
      2 C         138.7315  139.2235  166.6863 C.ar    1  UNL1        0.0012
      3 C         138.6315  138.9200  165.2207 C.ar    1  UNL1       -0.0003
      4 C         139.8308  139.0900  164.3360 C.ar    1  UNL1       -0.0039
      5 C         141.1301  139.5636  164.9169 C.ar    1  UNL1       -0.0177
      6 C         141.2302  139.8671  166.3824 C.ar    1  UNL1       -0.0027
      7 C         142.1354  139.6366  163.8059 C.3     1  UNL1        0.0526
      8 C         141.4572  139.2082  162.5384 C.ar    1  UNL1       -0.0177
      9 C         141.9526  139.0820  161.1282 C.ar    1  UNL1       -0.0027
     10 C         141.0237  138.6180  160.0456 C.ar    1  UNL1        0.0162
     11 C         139.5995  138.2802  160.3732 C.ar    1  UNL1        0.0012
     12 C         139.1041  138.4064  161.7835 C.ar    1  UNL1       -0.0003
     13 C         140.0330  138.8704  162.8660 C.ar    1  UNL1       -0.0039
     14 C         138.8884  140.2654  169.5303 C.3     1  UNL1        0.0553
     15 C         140.1309  140.0006  168.7327 C.2     1  UNL1        0.0935
     16 N         141.4733  140.0395  169.4007 N.2     1  UNL1       -0.1152
     17 N         141.5734  140.3430  170.8662 N.pl3   1  UNL1       -0.1547
     18 H         141.6513  139.6083  171.5169 H       1  UNL1        0.2922
     19 C         141.5547  141.7660  171.3404 C.cat   1  UNL1        0.3997
     20 N         140.3648  142.2922  172.0868 N.pl3   1  UNL1       -0.1280
     21 N         142.7259  142.6627  171.0681 N.pl3   1  UNL1       -0.2876
     22 H         139.5961  141.7037  172.2655 H       1  UNL1        0.3062
     23 H         143.5068  142.3173  170.5782 H       1  UNL1        0.2547
     24 H         142.7136  143.5967  171.3793 H       1  UNL1        0.2547
     25 C         141.5191  138.4919  158.6354 C.2     1  UNL1        0.0935
     26 C         140.6231  138.8595  157.4899 C.3     1  UNL1        0.0553
     27 N         142.9106  137.9981  158.3706 N.2     1  UNL1       -0.1152
     28 N         143.4060  137.8720  156.9605 N.pl3   1  UNL1       -0.1547
     29 H         143.7574  138.6619  156.4897 H       1  UNL1        0.2922
     30 C         143.3658  136.5422  156.2676 C.cat   1  UNL1        0.3997
     31 N         142.2072  135.6156  156.4892 N.pl3   1  UNL1       -0.1280
     32 N         144.4844  136.1389  155.3530 N.pl3   1  UNL1       -0.2876
     33 H         141.4731  135.8802  157.0894 H       1  UNL1        0.3062
     34 H         145.2448  136.7470  155.2076 H       1  UNL1        0.2547
     35 H         144.4580  135.2661  154.8983 H       1  UNL1        0.2547
@<TRIPOS>BOND
     1    14    15    1
     2    15    16    2
     3    16    17    1
     4    17    19    1
     5    19    20    2
     6    19    21    1
     7    15     1    1
     8     1     2   ar
     9     2     3   ar
    10     3     4   ar
    11     4     5   ar
    12     5     6   ar
    13     5     7    1
    14     7     8    1
    15     8     9   ar
    16     9    10   ar
    17    10    25    1
    18    25    26    1
    19    25    27    2
    20    27    28    1
    21    28    30    1
    22    30    31    2
    23    30    32    1
    24    10    11   ar
    25    11    12   ar
    26    12    13   ar
    27     6     1   ar
    28    13     8   ar
    29    13     4    1
    30    17    18    1
    31    20    22    1
    32    21    23    1
    33    21    24    1
    34    28    29    1
    35    31    33    1
    36    32    34    1
    37    32    35    1
@<TRIPOS>MOLECULE
*****
 35 37 0 0 0
SMALL
GASTEIGER

@<TRIPOS>ATOM
      1 C         140.8096  144.4725  159.6079 C.ar    1  UNL1        0.0162
      2 C         140.3692  143.0424  159.5039 C.ar    1  UNL1        0.0012
      3 C         140.1665  142.2277  160.7469 C.ar    1  UNL1       -0.0003
      4 C         140.4041  142.8432  162.0940 C.ar    1  UNL1       -0.0039
      5 C         140.8444  144.2733  162.1981 C.ar    1  UNL1       -0.0177
      6 C         141.0472  145.0879  160.9550 C.ar    1  UNL1       -0.0027
      7 C         140.9997  144.6059  163.6525 C.3     1  UNL1        0.0526
      8 C         140.6553  143.3813  164.4473 C.ar    1  UNL1       -0.0177
      9 C         140.6293  143.1175  165.9237 C.ar    1  UNL1       -0.0027
     10 C         140.2352  141.7641  166.4369 C.ar    1  UNL1        0.0162
     11 C         139.8671  140.6747  165.4737 C.ar    1  UNL1        0.0012
     12 C         139.8931  140.9386  163.9973 C.ar    1  UNL1       -0.0003
     13 C         140.2872  142.2919  163.4841 C.ar    1  UNL1       -0.0039
     14 C         142.2902  145.1661  157.5888 C.3     1  UNL1        0.0553
     15 C         141.0123  145.2872  158.3648 C.2     1  UNL1        0.0935
     16 N         139.9371  146.2229  157.8977 N.2     1  UNL1       -0.1152
     17 N         140.1398  147.0376  156.6546 N.pl3   1  UNL1       -0.1547
     18 H         141.0487  147.1876  156.3071 H       1  UNL1        0.2922
     19 C         138.9578  147.6238  155.9410 C.cat   1  UNL1        0.3997
     20 N         138.1511  146.7751  155.0036 N.pl3   1  UNL1       -0.1280
     21 N         138.5825  149.0587  156.1649 N.pl3   1  UNL1       -0.2876
     22 H         138.3974  145.8333  154.8567 H       1  UNL1        0.3062
     23 H         139.1120  149.6158  156.7801 H       1  UNL1        0.2547
     24 H         137.8067  149.4435  155.6965 H       1  UNL1        0.2547
     25 C         140.2092  141.5003  167.9133 C.2     1  UNL1        0.0935
     26 C         139.8600  140.1342  168.4250 C.3     1  UNL1        0.0553
     27 N         140.5324  142.6025  168.8780 N.2     1  UNL1       -0.1152
     28 N         140.5064  142.3387  170.3543 N.pl3   1  UNL1       -0.1547
     29 H         139.6492  142.3333  170.8384 H       1  UNL1        0.2922
     30 C         141.7865  142.0829  171.0931 C.cat   1  UNL1        0.3997
     31 N         141.9918  140.7812  171.8098 N.pl3   1  UNL1       -0.1280
     32 N         142.8616  143.1288  171.1153 N.pl3   1  UNL1       -0.2876
     33 H         141.2863  140.0947  171.7953 H       1  UNL1        0.3062
     34 H         142.7270  143.9831  170.6449 H       1  UNL1        0.2547
     35 H         143.7018  142.9609  171.6002 H       1  UNL1        0.2547
@<TRIPOS>BOND
     1    14    15    1
     2    15    16    2
     3    16    17    1
     4    17    19    1
     5    19    20    2
     6    19    21    1
     7    15     1    1
     8     1     2   ar
     9     2     3   ar
    10     3     4   ar
    11     4     5   ar
    12     5     6   ar
    13     5     7    1
    14     7     8    1
    15     8     9   ar
    16     9    10   ar
    17    10    25    1
    18    25    26    1
    19    25    27    2
    20    27    28    1
    21    28    30    1
    22    30    31    2
    23    30    32    1
    24    10    11   ar
    25    11    12   ar
    26    12    13   ar
    27     6     1   ar
    28    13     8   ar
    29    13     4    1
    30    17    18    1
    31    20    22    1
    32    21    23    1
    33    21    24    1
    34    28    29    1
    35    31    33    1
    36    32    34    1
    37    32    35    1
@<TRIPOS>MOLECULE
*****
 35 37 0 0 0
SMALL
GASTEIGER

@<TRIPOS>ATOM
      1 C         141.9749  139.4451  167.3303 C.ar    1  UNL1        0.0162
      2 C         143.2939  138.8000  167.0239 C.ar    1  UNL1        0.0012
      3 C         143.6707  138.5012  165.6030 C.ar    1  UNL1       -0.0003
      4 C         142.7283  138.8476  164.4886 C.ar    1  UNL1       -0.0039
      5 C         141.4093  139.4927  164.7950 C.ar    1  UNL1       -0.0177
      6 C         141.0326  139.7914  166.2158 C.ar    1  UNL1       -0.0027
      7 C         140.6910  139.7182  163.4975 C.3     1  UNL1        0.0526
      8 C         141.5662  139.2125  162.3893 C.ar    1  UNL1       -0.0177
      9 C         141.3793  139.1724  160.9015 C.ar    1  UNL1       -0.0027
     10 C         142.4516  138.5942  160.0262 C.ar    1  UNL1        0.0162
     11 C         143.7107  138.0562  160.6387 C.ar    1  UNL1        0.0012
     12 C         143.8976  138.0963  162.1265 C.ar    1  UNL1       -0.0003
     13 C         142.8254  138.6744  163.0018 C.ar    1  UNL1       -0.0039
     14 C         142.4566  139.2449  169.8754 C.3     1  UNL1        0.0553
     15 C         141.5982  139.7438  168.7511 C.2     1  UNL1        0.0935
     16 N         140.3630  140.5414  169.0477 N.2     1  UNL1       -0.1152
     17 N         139.9862  140.8401  170.4686 N.pl3   1  UNL1       -0.1547
     18 H         139.4551  140.1909  170.9839 H       1  UNL1        0.2922
     19 C         140.4188  142.1281  171.1042 C.cat   1  UNL1        0.3997
     20 N         141.7469  142.2141  171.7960 N.pl3   1  UNL1       -0.1280
     21 N         139.5232  143.3301  171.0481 N.pl3   1  UNL1       -0.2876
     22 H         142.3348  141.4252  171.8329 H       1  UNL1        0.3062
     23 H         138.6515  143.2737  170.5940 H       1  UNL1        0.2547
     24 H         139.8071  144.1754  171.4653 H       1  UNL1        0.2547
     25 C         142.2647  138.5541  158.5384 C.2     1  UNL1        0.0935
     26 C         140.9019  138.3130  157.9599 C.3     1  UNL1        0.0553
     27 N         143.4406  138.7552  157.6291 N.2     1  UNL1       -0.1152
     28 N         143.2537  138.7151  156.1414 N.pl3   1  UNL1       -0.1547
     29 H         142.4486  139.1104  155.7356 H       1  UNL1        0.2922
     30 C         144.2936  138.0727  155.2719 C.cat   1  UNL1        0.3997
     31 N         144.7174  136.6572  155.5306 N.pl3   1  UNL1       -0.1280
     32 N         144.9097  138.8457  154.1437 N.pl3   1  UNL1       -0.2876
     33 H         144.3131  136.1498  156.2711 H       1  UNL1        0.3062
     34 H         144.6316  139.7747  153.9738 H       1  UNL1        0.2547
     35 H         145.5922  138.4240  153.5730 H       1  UNL1        0.2547
@<TRIPOS>BOND
     1    14    15    1
     2    15    16    2
     3    16    17    1
     4    17    19    1
     5    19    20    2
     6    19    21    1
     7    15     1    1
     8     1     2   ar
     9     2     3   ar
    10     3     4   ar
    11     4     5   ar
    12     5     6   ar
    13     5     7    1
    14     7     8    1
    15     8     9   ar
    16     9    10   ar
    17    10    25    1
    18    25    26    1
    19    25    27    2
    20    27    28    1
    21    28    30    1
    22    30    31    2
    23    30    32    1
    24    10    11   ar
    25    11    12   ar
    26    12    13   ar
    27     6     1   ar
    28    13     8   ar
    29    13     4    1
    30    17    18    1
    31    20    22    1
    32    21    23    1
    33    21    24    1
    34    28    29    1
    35    31    33    1
    36    32    34    1
    37    32    35    1
@<TRIPOS>MOLECULE
*****
 35 37 0 0 0
SMALL
GASTEIGER

@<TRIPOS>ATOM
      1 C         140.0124  141.3037  167.3564 C.ar    1  UNL1        0.0162
      2 C         139.3848  139.9674  167.0916 C.ar    1  UNL1        0.0012
      3 C         138.9184  139.6185  165.7093 C.ar    1  UNL1       -0.0003
      4 C         139.0795  140.6061  164.5919 C.ar    1  UNL1       -0.0039
      5 C         139.7071  141.9425  164.8567 C.ar    1  UNL1       -0.0177
      6 C         140.1735  142.2913  166.2390 C.ar    1  UNL1       -0.0027
      7 C         139.7334  142.7062  163.5659 C.3     1  UNL1        0.0526
      8 C         139.1220  141.8419  162.5034 C.ar    1  UNL1       -0.0177
      9 C         138.8811  142.0689  161.0404 C.ar    1  UNL1       -0.0027
     10 C         138.2360  140.9980  160.2114 C.ar    1  UNL1        0.0162
     11 C         137.8319  139.7001  160.8454 C.ar    1  UNL1        0.0012
     12 C         138.0728  139.4730  162.3085 C.ar    1  UNL1       -0.0003
     13 C         138.7179  140.5439  163.1374 C.ar    1  UNL1       -0.0039
     14 C         140.2406  140.7007  169.8732 C.3     1  UNL1        0.0553
     15 C         140.4789  141.6525  168.7387 C.2     1  UNL1        0.0935
     16 N         141.1837  142.9532  168.9865 N.2     1  UNL1       -0.1152
     17 N         141.6502  143.3021  170.3688 N.pl3   1  UNL1       -0.1547
     18 H         141.0016  143.6011  171.0464 H       1  UNL1        0.2922
     19 C         143.1049  143.1953  170.7187 C.cat   1  UNL1        0.3997
     20 N         143.7810  144.3084  171.4628 N.pl3   1  UNL1       -0.1280
     21 N         143.8835  141.9753  170.3244 N.pl3   1  UNL1       -0.2876
     22 H         143.2700  145.1091  171.7215 H       1  UNL1        0.3062
     23 H         143.4397  141.2447  169.8361 H       1  UNL1        0.2547
     24 H         144.8383  141.9052  170.5541 H       1  UNL1        0.2547
     25 C         137.9951  141.2251  158.7484 C.2     1  UNL1        0.0935
     26 C         138.6217  142.4005  158.0586 C.3     1  UNL1        0.0553
     27 N         137.1274  140.2768  157.9751 N.2     1  UNL1       -0.1152
     28 N         136.8865  140.5039  156.5121 N.pl3   1  UNL1       -0.1547
     29 H         137.6466  140.5366  155.8873 H       1  UNL1        0.2922
     30 C         135.4874  140.6810  156.0011 C.cat   1  UNL1        0.3997
     31 N         135.0655  141.9932  155.4094 N.pl3   1  UNL1       -0.1280
     32 N         134.5101  139.5459  156.0818 N.pl3   1  UNL1       -0.2876
     33 H         135.7069  142.7383  155.3565 H       1  UNL1        0.3062
     34 H         134.7870  138.6846  156.4701 H       1  UNL1        0.2547
     35 H         133.5918  139.6622  155.7464 H       1  UNL1        0.2547
@<TRIPOS>BOND
     1    14    15    1
     2    15    16    2
     3    16    17    1
     4    17    19    1
     5    19    20    2
     6    19    21    1
     7    15     1    1
     8     1     2   ar
     9     2     3   ar
    10     3     4   ar
    11     4     5   ar
    12     5     6   ar
    13     5     7    1
    14     7     8    1
    15     8     9   ar
    16     9    10   ar
    17    10    25    1
    18    25    26    1
    19    25    27    2
    20    27    28    1
    21    28    30    1
    22    30    31    2
    23    30    32    1
    24    10    11   ar
    25    11    12   ar
    26    12    13   ar
    27     6     1   ar
    28    13     8   ar
    29    13     4    1
    30    17    18    1
    31    20    22    1
    32    21    23    1
    33    21    24    1
    34    28    29    1
    35    31    33    1
    36    32    34    1
    37    32    35    1
@<TRIPOS>MOLECULE
*****
 35 37 0 0 0
SMALL
GASTEIGER

@<TRIPOS>ATOM
      1 C         138.6074  140.0649  160.3031 C.ar    1  UNL1        0.0162
      2 C         137.9646  138.9415  161.0610 C.ar    1  UNL1        0.0012
      3 C         138.0930  138.8739  162.5540 C.ar    1  UNL1       -0.0003
      4 C         138.8642  139.9298  163.2890 C.ar    1  UNL1       -0.0039
      5 C         139.5070  141.0533  162.5311 C.ar    1  UNL1       -0.0177
      6 C         139.3786  141.1208  161.0381 C.ar    1  UNL1       -0.0027
      7 C         140.1996  141.9432  163.5202 C.3     1  UNL1        0.0526
      8 C         139.9849  141.3697  164.8895 C.ar    1  UNL1       -0.0177
      9 C         140.4342  141.8197  166.2480 C.ar    1  UNL1       -0.0027
     10 C         140.0582  141.0254  167.4637 C.ar    1  UNL1        0.0162
     11 C         139.2328  139.7811  167.3208 C.ar    1  UNL1        0.0012
     12 C         138.7835  139.3310  165.9622 C.ar    1  UNL1       -0.0003
     13 C         139.1595  140.1253  164.7466 C.ar    1  UNL1       -0.0039
     14 C         139.7006  140.0230  157.9466 C.3     1  UNL1        0.0553
     15 C         138.4790  140.1325  158.8101 C.2     1  UNL1        0.0935
     16 N         137.1291  140.3097  158.1807 N.2     1  UNL1       -0.1152
     17 N         137.0007  140.3773  156.6877 N.pl3   1  UNL1       -0.1547
     18 H         137.7800  140.1856  156.1175 H       1  UNL1        0.2922
     19 C         135.6849  140.7370  156.0636 C.cat   1  UNL1        0.3997
     20 N         135.4378  142.1385  155.5898 N.pl3   1  UNL1       -0.1280
     21 N         134.6164  139.6950  155.9133 N.pl3   1  UNL1       -0.2876
     22 H         136.1391  142.8224  155.6885 H       1  UNL1        0.3062
     23 H         134.7787  138.7751  156.2243 H       1  UNL1        0.2547
     24 H         133.7528  139.9311  155.5037 H       1  UNL1        0.2547
     25 C         140.5075  141.4755  168.8222 C.2     1  UNL1        0.0935
     26 C         140.2722  140.6009  170.0179 C.3     1  UNL1        0.0553
     27 N         141.1922  142.8001  168.9849 N.2     1  UNL1       -0.1152
     28 N         141.6416  143.2501  170.3434 N.pl3   1  UNL1       -0.1547
     29 H         140.9829  143.5861  170.9935 H       1  UNL1        0.2922
     30 C         143.0944  143.1883  170.7114 C.cat   1  UNL1        0.3997
     31 N         143.7239  144.3169  171.4731 N.pl3   1  UNL1       -0.1280
     32 N         143.9178  141.9979  170.3178 N.pl3   1  UNL1       -0.2876
     33 H         143.1835  145.0982  171.7315 H       1  UNL1        0.3062
     34 H         143.5047  141.2572  169.8179 H       1  UNL1        0.2547
     35 H         144.8714  141.9573  170.5593 H       1  UNL1        0.2547
@<TRIPOS>BOND
     1    14    15    1
     2    15    16    2
     3    16    17    1
     4    17    19    1
     5    19    20    2
     6    19    21    1
     7    15     1    1
     8     1     2   ar
     9     2     3   ar
    10     3     4   ar
    11     4     5   ar
    12     5     6   ar
    13     5     7    1
    14     7     8    1
    15     8     9   ar
    16     9    10   ar
    17    10    25    1
    18    25    26    1
    19    25    27    2
    20    27    28    1
    21    28    30    1
    22    30    31    2
    23    30    32    1
    24    10    11   ar
    25    11    12   ar
    26    12    13   ar
    27     6     1   ar
    28    13     8   ar
    29    13     4    1
    30    17    18    1
    31    20    22    1
    32    21    23    1
    33    21    24    1
    34    28    29    1
    35    31    33    1
    36    32    34    1
    37    32    35    1
