@<TRIPOS>MOLECULE
*****
 35 38 0 0 0
SMALL
GASTEIGER

@<TRIPOS>ATOM
      1 C         138.9726  139.8102  164.9728 C.ar    1  UNL1        0.0222
      2 C         140.4010  139.7383  165.4250 C.ar    1  UNL1        0.0220
      3 C         140.4133  139.7463  166.9249 C.ar    1  UNL1        0.0961
      4 C         141.5347  139.6936  167.9197 C.ar    1  UNL1        0.0685
      5 C         141.2353  139.7177  169.3894 C.ar    1  UNL1        0.0885
      6 C         139.8145  139.7945  169.8642 C.ar    1  UNL1        0.1263
      7 N         138.6931  139.8472  168.8694 N.ar    1  UNL1       -0.1633
      8 N         138.9925  139.8231  167.3998 N.ar    1  UNL1       -0.2270
      9 C         138.1021  139.8626  166.1933 C.ar    1  UNL1        0.1005
     10 C         137.5488  139.8597  160.7043 C.ar    1  UNL1        0.2250
     11 C         138.1615  138.6157  161.2761 C.ar    1  UNL1        0.0577
     12 C         138.6361  138.5992  162.6990 C.ar    1  UNL1        0.0064
     13 C         138.4980  139.8267  163.5500 C.ar    1  UNL1        0.0209
     14 C         137.8854  141.0707  162.9781 C.ar    1  UNL1        0.1021
     15 N         137.4108  141.0872  161.5552 N.ar    1  UNL1       -0.2101
     16 C         137.8540  140.6219  158.2394 C.3     1  UNL1        0.2542
     17 O         137.0742  139.8762  159.2814 O.3     1  UNL1       -0.4561
     18 C         142.3567  139.6650  170.3843 C.2     1  UNL1        0.2456
     19 N         142.4701  140.7212  171.4433 N.am    1  UNL1       -0.3252
     20 O         143.3648  138.5561  170.3200 O.2     1  UNL1       -0.2703
     21 H         141.8084  141.4490  171.4855 H       1  UNL1        0.1453
     22 H         143.2061  140.6866  172.0963 H       1  UNL1        0.1453
     23 N         142.9556  139.6168  167.4450 N.pl3   1  UNL1       -0.3327
     24 H         143.5743  138.9649  167.8467 H       1  UNL1        0.1468
     25 C         143.4337  140.5335  166.3582 C.3     1  UNL1        0.0702
     26 C         143.2925  142.0266  166.3385 C.3     1  UNL1        0.0208
     27 C         143.9085  142.5339  165.0684 C.3     1  UNL1        0.0160
     28 C         144.4304  141.3541  164.3030 C.3     1  UNL1        0.0404
     29 C         144.8514  142.3890  163.3022 C.3     1  UNL1        0.0156
     30 N         145.0403  140.3908  163.3284 N.3     1  UNL1       -0.3231
     31 C         144.1370  140.1178  165.1001 C.3     1  UNL1        0.0282
     32 C         144.8082  139.4128  163.9588 C.3     1  UNL1        0.0029
     33 C         143.9838  138.7341  165.6587 C.3     1  UNL1        0.0029
     34 H         145.4088  140.9045  162.5280 H       1  UNL1        0.1188
     35 H         144.3291  139.7319  163.0114 H       1  UNL1        0.1188
@<TRIPOS>BOND
     1    16    17    1
     2    17    10    1
     3    10    11   ar
     4    11    12   ar
     5    12    13   ar
     6    13     1    1
     7     1     2   ar
     8     2     3   ar
     9     3     4   ar
    10     4    23    1
    11    25    23    1
    12    25    26    1
    13    26    27    1
    14    27    28    1
    15    28    29    1
    16    28    30    1
    17    28    31    1
    18    31    32    1
    19    31    33    1
    20     4     5   ar
    21     5    18    1
    22    18    19   am
    23    18    20    2
    24     5     6   ar
    25     6     7   ar
    26     7     8   ar
    27     8     9   ar
    28    13    14   ar
    29    14    15   ar
    30    15    10   ar
    31     9     1   ar
    32     8     3   ar
    33    31    25    1
    34    23    24    1
    35    30    34    1
    36    30    35    1
    37    19    21    1
    38    19    22    1
@<TRIPOS>MOLECULE
*****
 35 38 0 0 0
SMALL
GASTEIGER

@<TRIPOS>ATOM
      1 C         138.7839  139.9749  165.3683 C.ar    1  UNL1        0.0222
      2 C         140.1111  140.4509  165.8801 C.ar    1  UNL1        0.0220
      3 C         140.0938  140.3504  167.3766 C.ar    1  UNL1        0.0961
      4 C         141.1236  140.6793  168.4165 C.ar    1  UNL1        0.0685
      5 C         140.8153  140.4702  169.8696 C.ar    1  UNL1        0.0885
      6 C         139.4776  139.9322  170.2826 C.ar    1  UNL1        0.1263
      7 N         138.4478  139.6032  169.2427 N.ar    1  UNL1       -0.1633
      8 N         138.7560  139.8123  167.7897 N.ar    1  UNL1       -0.2270
      9 C         137.9464  139.5803  166.5484 C.ar    1  UNL1        0.1005
     10 C         137.5341  139.7673  161.0502 C.ar    1  UNL1        0.2250
     11 C         138.0977  138.5532  161.7271 C.ar    1  UNL1        0.0577
     12 C         138.5143  138.6224  163.1664 C.ar    1  UNL1        0.0064
     13 C         138.3673  139.9058  163.9289 C.ar    1  UNL1        0.0209
     14 C         137.8036  141.1199  163.2521 C.ar    1  UNL1        0.1021
     15 N         137.3870  141.0506  161.8127 N.ar    1  UNL1       -0.2101
     16 C         137.8521  140.5004  158.5782 C.3     1  UNL1        0.2542
     17 O         137.1174  139.6981  159.6109 O.3     1  UNL1       -0.4561
     18 C         141.8451  140.7991  170.9096 C.2     1  UNL1        0.2456
     19 N         143.0059  139.8760  171.1339 N.am    1  UNL1       -0.3252
     20 O         141.7140  142.0512  171.7252 O.2     1  UNL1       -0.2703
     21 H         143.0920  139.0543  170.5987 H       1  UNL1        0.1453
     22 H         143.6818  140.0919  171.8165 H       1  UNL1        0.1453
     23 N         142.4615  141.2174  168.0035 N.pl3   1  UNL1       -0.3327
     24 H         142.9030  141.9092  168.5472 H       1  UNL1        0.1468
     25 C         143.1266  140.7014  166.7620 C.3     1  UNL1        0.0702
     26 C         143.3681  139.2598  166.4253 C.3     1  UNL1        0.0208
     27 C         144.0577  139.2037  165.0945 C.3     1  UNL1        0.0160
     28 C         144.2424  140.6108  164.6085 C.3     1  UNL1        0.0404
     29 C         144.8845  139.9505  163.4246 C.3     1  UNL1        0.0156
     30 N         144.5613  141.8797  163.8751 N.3     1  UNL1       -0.3231
     31 C         143.6669  141.5364  165.6391 C.3     1  UNL1        0.0282
     32 C         144.1062  142.6119  164.6902 C.3     1  UNL1        0.0029
     33 C         143.1833  142.6868  166.4713 C.3     1  UNL1        0.0029
     34 H         145.0261  141.6562  162.9951 H       1  UNL1        0.1188
     35 H         145.1768  142.4577  164.4475 H       1  UNL1        0.1188
@<TRIPOS>BOND
     1    16    17    1
     2    17    10    1
     3    10    11   ar
     4    11    12   ar
     5    12    13   ar
     6    13     1    1
     7     1     2   ar
     8     2     3   ar
     9     3     4   ar
    10     4    23    1
    11    25    23    1
    12    25    26    1
    13    26    27    1
    14    27    28    1
    15    28    29    1
    16    28    30    1
    17    28    31    1
    18    31    32    1
    19    31    33    1
    20     4     5   ar
    21     5    18    1
    22    18    19   am
    23    18    20    2
    24     5     6   ar
    25     6     7   ar
    26     7     8   ar
    27     8     9   ar
    28    13    14   ar
    29    14    15   ar
    30    15    10   ar
    31     9     1   ar
    32     8     3   ar
    33    31    25    1
    34    23    24    1
    35    30    34    1
    36    30    35    1
    37    19    21    1
    38    19    22    1
@<TRIPOS>MOLECULE
*****
 35 38 0 0 0
SMALL
GASTEIGER

@<TRIPOS>ATOM
      1 C         142.5548  139.0505  163.6699 C.ar    1  UNL1        0.0222
      2 C         141.3575  139.6605  164.3365 C.ar    1  UNL1        0.0220
      3 C         141.5843  139.6256  165.8188 C.ar    1  UNL1        0.0961
      4 C         140.7458  140.0874  166.9737 C.ar    1  UNL1        0.0685
      5 C         141.2448  139.9176  168.3780 C.ar    1  UNL1        0.0885
      6 C         142.5823  139.2861  168.6275 C.ar    1  UNL1        0.1263
      7 N         143.4208  138.8243  167.4727 N.ar    1  UNL1       -0.1633
      8 N         142.9218  138.9941  166.0684 N.ar    1  UNL1       -0.2270
      9 C         143.5216  138.6386  164.7403 C.ar    1  UNL1        0.1005
     10 C         143.1429  138.5447  159.2372 C.ar    1  UNL1        0.2250
     11 C         141.8492  138.1315  159.8741 C.ar    1  UNL1        0.0577
     12 C         141.6532  138.3001  161.3517 C.ar    1  UNL1        0.0064
     13 C         142.7508  138.8819  162.1924 C.ar    1  UNL1        0.0209
     14 C         144.0445  139.2952  161.5555 C.ar    1  UNL1        0.1021
     15 N         144.2405  139.1265  160.0779 N.ar    1  UNL1       -0.2101
     16 C         142.6167  137.2846  157.0271 C.3     1  UNL1        0.2542
     17 O         143.3390  138.3761  157.7597 O.3     1  UNL1       -0.4561
     18 C         140.4063  140.3794  169.5329 C.2     1  UNL1        0.2456
     19 N         140.2353  139.4987  170.7351 N.am    1  UNL1       -0.3252
     20 O         139.7387  141.7218  169.4856 O.2     1  UNL1       -0.2703
     21 H         140.6734  138.6176  170.7662 H       1  UNL1        0.1453
     22 H         139.6849  139.8018  171.4931 H       1  UNL1        0.1453
     23 N         139.4083  140.7190  166.7242 N.pl3   1  UNL1       -0.3327
     24 H         138.5988  140.3349  167.1322 H       1  UNL1        0.1468
     25 C         139.3042  141.9356  165.8531 C.3     1  UNL1        0.0702
     26 C         140.0580  143.2192  166.0376 C.3     1  UNL1        0.0208
     27 C         139.6478  144.1592  164.9431 C.3     1  UNL1        0.0160
     28 C         138.6403  143.4566  164.0821 C.3     1  UNL1        0.0404
     29 C         138.6421  144.7401  163.3057 C.3     1  UNL1        0.0156
     30 N         137.6333  143.0223  163.0588 N.3     1  UNL1       -0.3231
     31 C         138.4280  142.0824  164.6445 C.3     1  UNL1        0.0282
     32 C         137.4653  141.9353  163.5036 C.3     1  UNL1        0.0029
     33 C         138.0144  140.6774  164.9684 C.3     1  UNL1        0.0029
     34 H         137.4740  143.7805  162.3953 H       1  UNL1        0.1188
     35 H         136.7562  142.7872  163.5234 H       1  UNL1        0.1188
@<TRIPOS>BOND
     1    16    17    1
     2    17    10    1
     3    10    11   ar
     4    11    12   ar
     5    12    13   ar
     6    13     1    1
     7     1     2   ar
     8     2     3   ar
     9     3     4   ar
    10     4    23    1
    11    25    23    1
    12    25    26    1
    13    26    27    1
    14    27    28    1
    15    28    29    1
    16    28    30    1
    17    28    31    1
    18    31    32    1
    19    31    33    1
    20     4     5   ar
    21     5    18    1
    22    18    19   am
    23    18    20    2
    24     5     6   ar
    25     6     7   ar
    26     7     8   ar
    27     8     9   ar
    28    13    14   ar
    29    14    15   ar
    30    15    10   ar
    31     9     1   ar
    32     8     3   ar
    33    31    25    1
    34    23    24    1
    35    30    34    1
    36    30    35    1
    37    19    21    1
    38    19    22    1
@<TRIPOS>MOLECULE
*****
 35 38 0 0 0
SMALL
GASTEIGER

@<TRIPOS>ATOM
      1 C         140.4926  142.8618  164.1056 C.ar    1  UNL1        0.0222
      2 C         140.8975  141.4854  164.5434 C.ar    1  UNL1        0.0220
      3 C         140.9443  141.4710  166.0426 C.ar    1  UNL1        0.0961
      4 C         141.2807  140.3893  167.0258 C.ar    1  UNL1        0.0685
      5 C         141.2411  140.6751  168.4979 C.ar    1  UNL1        0.0885
      6 C         140.8652  142.0424  168.9866 C.ar    1  UNL1        0.1263
      7 N         140.5288  143.1241  168.0034 N.ar    1  UNL1       -0.1633
      8 N         140.5683  142.8384  166.5314 N.ar    1  UNL1       -0.2270
      9 C         140.2892  143.6980  165.3342 C.ar    1  UNL1        0.1005
     10 C         139.9786  144.2406  159.8530 C.ar    1  UNL1        0.2250
     11 C         141.2471  144.5470  160.5926 C.ar    1  UNL1        0.0577
     12 C         141.4184  144.0873  162.0101 C.ar    1  UNL1        0.0064
     13 C         140.3213  143.3214  162.6881 C.ar    1  UNL1        0.0209
     14 C         139.0528  143.0150  161.9485 C.ar    1  UNL1        0.1021
     15 N         138.8815  143.4747  160.5309 N.ar    1  UNL1       -0.2101
     16 C         140.8186  145.6197  157.8177 C.3     1  UNL1        0.2542
     17 O         139.8072  144.7002  158.4354 O.3     1  UNL1       -0.4561
     18 C         141.5775  139.5933  169.4812 C.2     1  UNL1        0.2456
     19 N         140.6605  139.3176  170.6358 N.am    1  UNL1       -0.3252
     20 O         142.8309  138.7873  169.3098 O.2     1  UNL1       -0.2703
     21 H         139.8379  139.8467  170.7483 H       1  UNL1        0.1453
     22 H         140.8813  138.6077  171.2811 H       1  UNL1        0.1453
     23 N         141.6567  139.0218  166.5371 N.pl3   1  UNL1       -0.3327
     24 H         141.4264  138.2276  167.0714 H       1  UNL1        0.1468
     25 C         142.3835  138.8646  165.2345 C.3     1  UNL1        0.0702
     26 C         143.7192  139.4556  164.8932 C.3     1  UNL1        0.0208
     27 C         144.0635  139.0450  163.4922 C.3     1  UNL1        0.0160
     28 C         142.9406  138.2001  162.9676 C.3     1  UNL1        0.0404
     29 C         143.7808  138.1320  161.7269 C.3     1  UNL1        0.0156
     30 N         141.9933  137.3411  162.1836 N.3     1  UNL1       -0.3231
     31 C         141.9023  138.0886  164.0444 C.3     1  UNL1        0.0282
     32 C         141.1720  137.2528  163.0353 C.3     1  UNL1        0.0029
     33 C         140.7113  137.8024  164.9102 C.3     1  UNL1        0.0029
     34 H         142.3841  137.1603  161.2590 H       1  UNL1        0.1188
     35 H         141.0990  137.8219  162.0868 H       1  UNL1        0.1188
@<TRIPOS>BOND
     1    16    17    1
     2    17    10    1
     3    10    11   ar
     4    11    12   ar
     5    12    13   ar
     6    13     1    1
     7     1     2   ar
     8     2     3   ar
     9     3     4   ar
    10     4    23    1
    11    25    23    1
    12    25    26    1
    13    26    27    1
    14    27    28    1
    15    28    29    1
    16    28    30    1
    17    28    31    1
    18    31    32    1
    19    31    33    1
    20     4     5   ar
    21     5    18    1
    22    18    19   am
    23    18    20    2
    24     5     6   ar
    25     6     7   ar
    26     7     8   ar
    27     8     9   ar
    28    13    14   ar
    29    14    15   ar
    30    15    10   ar
    31     9     1   ar
    32     8     3   ar
    33    31    25    1
    34    23    24    1
    35    30    34    1
    36    30    35    1
    37    19    21    1
    38    19    22    1
@<TRIPOS>MOLECULE
*****
 35 38 0 0 0
SMALL
GASTEIGER

@<TRIPOS>ATOM
      1 C         138.6286  140.4140  164.1087 C.ar    1  UNL1        0.0222
      2 C         138.9454  141.6480  163.3170 C.ar    1  UNL1        0.0220
      3 C         138.5845  141.3851  161.8850 C.ar    1  UNL1        0.0961
      4 C         138.6777  142.2370  160.6539 C.ar    1  UNL1        0.0685
      5 C         138.2312  141.6924  159.3294 C.ar    1  UNL1        0.0885
      6 C         137.6915  140.2960  159.2362 C.ar    1  UNL1        0.1263
      7 N         137.5983  139.4442  160.4673 N.ar    1  UNL1       -0.1633
      8 N         138.0448  139.9887  161.7917 N.ar    1  UNL1       -0.2270
      9 C         138.0721  139.3885  163.1661 C.ar    1  UNL1        0.1005
     10 C         139.2407  139.8817  168.5351 C.ar    1  UNL1        0.2250
     11 C         140.0082  140.9356  167.7932 C.ar    1  UNL1        0.0577
     12 C         139.8041  141.1129  166.3178 C.ar    1  UNL1        0.0064
     13 C         138.8326  140.2365  165.5842 C.ar    1  UNL1        0.0209
     14 C         138.0652  139.1827  166.3261 C.ar    1  UNL1        0.1021
     15 N         138.2692  139.0053  167.8015 N.ar    1  UNL1       -0.2101
     16 C         140.4033  140.5922  170.7472 C.3     1  UNL1        0.2542
     17 O         139.4447  139.7043  170.0105 O.3     1  UNL1       -0.4561
     18 C         138.3243  142.5443  158.0983 C.2     1  UNL1        0.2456
     19 N         137.1686  142.6131  157.1446 N.am    1  UNL1       -0.3252
     20 O         139.5733  143.3273  157.8208 O.2     1  UNL1       -0.2703
     21 H         136.3489  142.0992  157.3267 H       1  UNL1        0.1453
     22 H         137.2297  143.1722  156.3366 H       1  UNL1        0.1453
     23 N         139.2174  143.6335  160.7471 N.pl3   1  UNL1       -0.3327
     24 H         138.6706  144.3939  160.4437 H       1  UNL1        0.1468
     25 C         140.5903  143.8713  161.3026 C.3     1  UNL1        0.0702
     26 C         141.8543  143.2063  160.8443 C.3     1  UNL1        0.0208
     27 C         142.9854  143.7399  161.6723 C.3     1  UNL1        0.0160
     28 C         142.4206  144.7348  162.6424 C.3     1  UNL1        0.0404
     29 C         143.8450  144.8674  163.0935 C.3     1  UNL1        0.0156
     30 N         142.1535  145.7574  163.7068 N.3     1  UNL1       -0.3231
     31 C         140.9403  144.8161  162.4139 C.3     1  UNL1        0.0282
     32 C         140.9826  145.8217  163.5261 C.3     1  UNL1        0.0029
     33 C         139.4689  145.1075  162.4179 C.3     1  UNL1        0.0029
     34 H         143.0292  146.0058  164.1671 H       1  UNL1        0.1188
     35 H         141.5057  145.3718  164.3939 H       1  UNL1        0.1188
@<TRIPOS>BOND
     1    16    17    1
     2    17    10    1
     3    10    11   ar
     4    11    12   ar
     5    12    13   ar
     6    13     1    1
     7     1     2   ar
     8     2     3   ar
     9     3     4   ar
    10     4    23    1
    11    25    23    1
    12    25    26    1
    13    26    27    1
    14    27    28    1
    15    28    29    1
    16    28    30    1
    17    28    31    1
    18    31    32    1
    19    31    33    1
    20     4     5   ar
    21     5    18    1
    22    18    19   am
    23    18    20    2
    24     5     6   ar
    25     6     7   ar
    26     7     8   ar
    27     8     9   ar
    28    13    14   ar
    29    14    15   ar
    30    15    10   ar
    31     9     1   ar
    32     8     3   ar
    33    31    25    1
    34    23    24    1
    35    30    34    1
    36    30    35    1
    37    19    21    1
    38    19    22    1
@<TRIPOS>MOLECULE
*****
 35 38 0 0 0
SMALL
GASTEIGER

@<TRIPOS>ATOM
      1 C         140.0288  138.7732  162.9897 C.ar    1  UNL1        0.0222
      2 C         140.7077  139.6762  163.9765 C.ar    1  UNL1        0.0220
      3 C         139.9751  139.5710  165.2812 C.ar    1  UNL1        0.0961
      4 C         140.1923  140.2316  166.6103 C.ar    1  UNL1        0.0685
      5 C         139.2778  139.9243  167.7589 C.ar    1  UNL1        0.0885
      6 C         138.1462  138.9564  167.5785 C.ar    1  UNL1        0.1263
      7 N         137.9290  138.2958  166.2494 N.ar    1  UNL1       -0.1633
      8 N         138.8435  138.6031  165.1008 N.ar    1  UNL1       -0.2270
      9 C         138.8766  138.1101  163.6845 C.ar    1  UNL1        0.1005
     10 C         141.2365  138.1613  158.6982 C.ar    1  UNL1        0.2250
     11 C         142.2663  138.0809  159.7859 C.ar    1  UNL1        0.0577
     12 C         141.8637  138.2849  161.2164 C.ar    1  UNL1        0.0064
     13 C         140.4313  138.5692  161.5592 C.ar    1  UNL1        0.0209
     14 C         139.4015  138.6496  160.4715 C.ar    1  UNL1        0.1021
     15 N         139.8042  138.4456  159.0410 N.ar    1  UNL1       -0.2101
     16 C         142.8884  137.1938  156.9418 C.3     1  UNL1        0.2542
     17 O         141.6391  137.9573  157.2677 O.3     1  UNL1       -0.4561
     18 C         139.4950  140.5849  169.0881 C.2     1  UNL1        0.2456
     19 N         139.1689  139.8488  170.3537 N.am    1  UNL1       -0.3252
     20 O         140.0383  141.9816  169.1515 O.2     1  UNL1       -0.2703
     21 H         138.8123  138.9321  170.3120 H       1  UNL1        0.1453
     22 H         139.3115  140.2823  171.2260 H       1  UNL1        0.1453
     23 N         141.3240  141.1995  166.7908 N.pl3   1  UNL1       -0.3327
     24 H         141.9752  141.0656  167.5169 H       1  UNL1        0.1468
     25 C         141.4634  142.3714  165.8650 C.3     1  UNL1        0.0702
     26 C         140.3456  143.2371  165.3639 C.3     1  UNL1        0.0208
     27 C         140.9364  144.2841  164.4669 C.3     1  UNL1        0.0160
     28 C         142.4194  144.0656  164.4136 C.3     1  UNL1        0.0404
     29 C         142.4030  145.2539  163.4984 C.3     1  UNL1        0.0156
     30 N         143.8990  144.0955  164.1689 N.3     1  UNL1       -0.3231
     31 C         142.7451  142.8835  165.2776 C.3     1  UNL1        0.0282
     32 C         144.1567  143.1605  164.8523 C.3     1  UNL1        0.0029
     33 C         143.3659  141.7593  166.0528 C.3     1  UNL1        0.0029
     34 H         144.1241  144.8663  163.5400 H       1  UNL1        0.1188
     35 H         144.1915  143.2147  163.7456 H       1  UNL1        0.1188
@<TRIPOS>BOND
     1    16    17    1
     2    17    10    1
     3    10    11   ar
     4    11    12   ar
     5    12    13   ar
     6    13     1    1
     7     1     2   ar
     8     2     3   ar
     9     3     4   ar
    10     4    23    1
    11    25    23    1
    12    25    26    1
    13    26    27    1
    14    27    28    1
    15    28    29    1
    16    28    30    1
    17    28    31    1
    18    31    32    1
    19    31    33    1
    20     4     5   ar
    21     5    18    1
    22    18    19   am
    23    18    20    2
    24     5     6   ar
    25     6     7   ar
    26     7     8   ar
    27     8     9   ar
    28    13    14   ar
    29    14    15   ar
    30    15    10   ar
    31     9     1   ar
    32     8     3   ar
    33    31    25    1
    34    23    24    1
    35    30    34    1
    36    30    35    1
    37    19    21    1
    38    19    22    1
@<TRIPOS>MOLECULE
*****
 35 38 0 0 0
SMALL
GASTEIGER

@<TRIPOS>ATOM
      1 C         142.4311  139.4722  164.5284 C.ar    1  UNL1        0.0222
      2 C         142.7807  140.6304  163.6417 C.ar    1  UNL1        0.0220
      3 C         142.9800  140.1055  162.2507 C.ar    1  UNL1        0.0961
      4 C         143.3384  140.7861  160.9630 C.ar    1  UNL1        0.0685
      5 C         143.4704  139.9840  159.7023 C.ar    1  UNL1        0.0885
      6 C         143.2440  138.5015  159.7294 C.ar    1  UNL1        0.1263
      7 N         142.8856  137.8209  161.0171 N.ar    1  UNL1       -0.1633
      8 N         142.7536  138.6229  162.2778 N.ar    1  UNL1       -0.2270
      9 C         142.4143  138.2315  163.6855 C.ar    1  UNL1        0.1005
     10 C         141.5816  139.6826  168.9426 C.ar    1  UNL1        0.2250
     11 C         140.5975  140.2477  167.9617 C.ar    1  UNL1        0.0577
     12 C         140.8807  140.1776  166.4903 C.ar    1  UNL1        0.0064
     13 C         142.1479  139.5423  165.9998 C.ar    1  UNL1        0.0209
     14 C         143.1320  138.9771  166.9807 C.ar    1  UNL1        0.1021
     15 N         142.8488  139.0473  168.4521 N.ar    1  UNL1       -0.2101
     16 C         141.1606  141.0853  171.0884 C.3     1  UNL1        0.2542
     17 O         141.2984  139.7527  170.4139 O.3     1  UNL1       -0.4561
     18 C         143.8288  140.6646  158.4144 C.2     1  UNL1        0.2456
     19 N         144.9103  140.0985  157.5427 N.am    1  UNL1       -0.3252
     20 O         143.1057  141.9112  157.9984 O.2     1  UNL1       -0.2703
     21 H         145.3849  139.2803  157.8157 H       1  UNL1        0.1453
     22 H         145.1455  140.5452  156.6974 H       1  UNL1        0.1453
     23 N         143.5648  142.2687  160.9358 N.pl3   1  UNL1       -0.3327
     24 H         144.4619  142.6262  160.7445 H       1  UNL1        0.1468
     25 C         142.4243  143.2064  161.2001 C.3     1  UNL1        0.0702
     26 C         141.1094  143.2210  160.4785 C.3     1  UNL1        0.0208
     27 C         140.2709  144.3178  161.0648 C.3     1  UNL1        0.0160
     28 C         141.0676  144.9812  162.1488 C.3     1  UNL1        0.0404
     29 C         139.8501  145.8445  162.2984 C.3     1  UNL1        0.0156
     30 N         141.6097  145.8251  163.2641 N.3     1  UNL1       -0.3231
     31 C         142.3984  144.2944  162.2325 C.3     1  UNL1        0.0282
     32 C         142.6624  145.2819  163.3303 C.3     1  UNL1        0.0029
     33 C         143.7845  143.8139  162.5456 C.3     1  UNL1        0.0029
     34 H         140.9112  146.5160  163.5382 H       1  UNL1        0.1188
     35 H         142.4547  146.3021  162.9497 H       1  UNL1        0.1188
@<TRIPOS>BOND
     1    16    17    1
     2    17    10    1
     3    10    11   ar
     4    11    12   ar
     5    12    13   ar
     6    13     1    1
     7     1     2   ar
     8     2     3   ar
     9     3     4   ar
    10     4    23    1
    11    25    23    1
    12    25    26    1
    13    26    27    1
    14    27    28    1
    15    28    29    1
    16    28    30    1
    17    28    31    1
    18    31    32    1
    19    31    33    1
    20     4     5   ar
    21     5    18    1
    22    18    19   am
    23    18    20    2
    24     5     6   ar
    25     6     7   ar
    26     7     8   ar
    27     8     9   ar
    28    13    14   ar
    29    14    15   ar
    30    15    10   ar
    31     9     1   ar
    32     8     3   ar
    33    31    25    1
    34    23    24    1
    35    30    34    1
    36    30    35    1
    37    19    21    1
    38    19    22    1
@<TRIPOS>MOLECULE
*****
 35 38 0 0 0
SMALL
GASTEIGER

@<TRIPOS>ATOM
      1 C         140.9218  139.4986  163.5155 C.ar    1  UNL1        0.0222
      2 C         141.6170  140.6661  162.8801 C.ar    1  UNL1        0.0220
      3 C         142.1192  140.2307  161.5354 C.ar    1  UNL1        0.0961
      4 C         142.8771  140.9567  160.4638 C.ar    1  UNL1        0.0685
      5 C         143.2503  140.2461  159.1966 C.ar    1  UNL1        0.0885
      6 C         142.8656  138.8097  159.0009 C.ar    1  UNL1        0.1263
      7 N         142.1076  138.0836  160.0725 N.ar    1  UNL1       -0.1633
      8 N         141.7344  138.7941  161.3398 N.ar    1  UNL1       -0.2270
      9 C         140.9944  138.3417  162.5635 C.ar    1  UNL1        0.1005
     10 C         138.9624  139.4716  167.5665 C.ar    1  UNL1        0.2250
     11 C         138.2814  138.8200  166.3996 C.ar    1  UNL1        0.0577
     12 C         138.9346  138.8291  165.0493 C.ar    1  UNL1        0.0064
     13 C         140.2687  139.4896  164.8658 C.ar    1  UNL1        0.0209
     14 C         140.9498  140.1412  166.0327 C.ar    1  UNL1        0.1021
     15 N         140.2966  140.1321  167.3830 N.ar    1  UNL1       -0.2101
     16 C         138.8466  140.3310  170.0155 C.3     1  UNL1        0.2542
     17 O         138.3094  139.4626  168.9168 O.3     1  UNL1       -0.4561
     18 C         144.0083  140.9722  158.1249 C.2     1  UNL1        0.2456
     19 N         145.0890  140.2661  157.3610 N.am    1  UNL1       -0.3252
     20 O         143.6857  142.4045  157.8172 O.2     1  UNL1       -0.2703
     21 H         145.3007  139.3261  157.5629 H       1  UNL1        0.1453
     22 H         145.5865  140.7426  156.6577 H       1  UNL1        0.1453
     23 N         143.2619  142.3933  160.6594 N.pl3   1  UNL1       -0.3327
     24 H         144.2116  142.6528  160.6601 H       1  UNL1        0.1468
     25 C         142.1997  143.4344  160.8539 C.3     1  UNL1        0.0702
     26 C         141.0382  143.6904  159.9400 C.3     1  UNL1        0.0208
     27 C         140.2332  144.8165  160.5176 C.3     1  UNL1        0.0160
     28 C         140.8972  145.2565  161.7886 C.3     1  UNL1        0.0404
     29 C         139.7714  146.2459  161.8492 C.3     1  UNL1        0.0156
     30 N         141.3258  145.9034  163.0722 N.3     1  UNL1       -0.3231
     31 C         142.1126  144.4024  161.9964 C.3     1  UNL1        0.0282
     32 C         142.2872  145.2279  163.2367 C.3     1  UNL1        0.0029
     33 C         143.3645  143.7208  162.4635 C.3     1  UNL1        0.0029
     34 H         140.6684  146.6443  163.3157 H       1  UNL1        0.1188
     35 H         142.2584  146.3005  162.9580 H       1  UNL1        0.1188
@<TRIPOS>BOND
     1    16    17    1
     2    17    10    1
     3    10    11   ar
     4    11    12   ar
     5    12    13   ar
     6    13     1    1
     7     1     2   ar
     8     2     3   ar
     9     3     4   ar
    10     4    23    1
    11    25    23    1
    12    25    26    1
    13    26    27    1
    14    27    28    1
    15    28    29    1
    16    28    30    1
    17    28    31    1
    18    31    32    1
    19    31    33    1
    20     4     5   ar
    21     5    18    1
    22    18    19   am
    23    18    20    2
    24     5     6   ar
    25     6     7   ar
    26     7     8   ar
    27     8     9   ar
    28    13    14   ar
    29    14    15   ar
    30    15    10   ar
    31     9     1   ar
    32     8     3   ar
    33    31    25    1
    34    23    24    1
    35    30    34    1
    36    30    35    1
    37    19    21    1
    38    19    22    1
@<TRIPOS>MOLECULE
*****
 35 38 0 0 0
SMALL
GASTEIGER

@<TRIPOS>ATOM
      1 C         139.1588  139.9437  162.9629 C.ar    1  UNL1        0.0222
      2 C         139.7265  141.1240  163.6941 C.ar    1  UNL1        0.0220
      3 C         139.6495  140.8390  165.1647 C.ar    1  UNL1        0.0961
      4 C         140.0602  141.6394  166.3650 C.ar    1  UNL1        0.0685
      5 C         139.8556  141.0833  167.7430 C.ar    1  UNL1        0.0885
      6 C         139.2404  139.7269  167.9208 C.ar    1  UNL1        0.1263
      7 N         138.8297  138.9265  166.7205 N.ar    1  UNL1       -0.1633
      8 N         139.0343  139.4825  165.3425 N.ar    1  UNL1       -0.2270
      9 C         138.7310  138.9292  163.9817 C.ar    1  UNL1        0.1005
     10 C         138.8019  139.5203  158.4970 C.ar    1  UNL1        0.2250
     11 C         140.0845  139.1570  159.1847 C.ar    1  UNL1        0.0577
     12 C         140.2034  139.2982  160.6733 C.ar    1  UNL1        0.0064
     13 C         139.0398  139.8026  161.4743 C.ar    1  UNL1        0.0209
     14 C         137.7572  140.1659  160.7866 C.ar    1  UNL1        0.1021
     15 N         137.6382  140.0247  159.2980 N.ar    1  UNL1       -0.2101
     16 C         138.3904  140.5826  156.1621 C.3     1  UNL1        0.2542
     17 O         138.6828  139.3792  157.0084 O.3     1  UNL1       -0.4561
     18 C         140.2663  141.8837  168.9434 C.2     1  UNL1        0.2456
     19 N         139.4573  141.8132  170.2045 N.am    1  UNL1       -0.3252
     20 O         141.4861  142.7546  168.8826 O.2     1  UNL1       -0.2703
     21 H         138.6567  141.2417  170.2444 H       1  UNL1        0.1453
     22 H         139.7268  142.3386  170.9923 H       1  UNL1        0.1453
     23 N         140.6755  142.9958  166.1873 N.pl3   1  UNL1       -0.3327
     24 H         140.3210  143.7665  166.6870 H       1  UNL1        0.1468
     25 C         141.8309  143.1781  165.2483 C.3     1  UNL1        0.0702
     26 C         143.1225  142.4161  165.2813 C.3     1  UNL1        0.0208
     27 C         143.9875  142.9214  164.1648 C.3     1  UNL1        0.0160
     28 C         143.2304  143.9956  163.4418 C.3     1  UNL1        0.0404
     29 C         144.4587  144.0646  162.5835 C.3     1  UNL1        0.0156
     30 N         142.7302  145.0843  162.5393 N.3     1  UNL1       -0.3231
     31 C         141.8976  144.1543  164.1114 C.3     1  UNL1        0.0282
     32 C         141.6759  145.2099  163.0689 C.3     1  UNL1        0.0029
     33 C         140.5185  144.5336  164.5631 C.3     1  UNL1        0.0029
     34 H         143.4423  145.3022  161.8423 H       1  UNL1        0.1188
     35 H         142.5287  145.9179  163.0915 H       1  UNL1        0.1188
@<TRIPOS>BOND
     1    16    17    1
     2    17    10    1
     3    10    11   ar
     4    11    12   ar
     5    12    13   ar
     6    13     1    1
     7     1     2   ar
     8     2     3   ar
     9     3     4   ar
    10     4    23    1
    11    25    23    1
    12    25    26    1
    13    26    27    1
    14    27    28    1
    15    28    29    1
    16    28    30    1
    17    28    31    1
    18    31    32    1
    19    31    33    1
    20     4     5   ar
    21     5    18    1
    22    18    19   am
    23    18    20    2
    24     5     6   ar
    25     6     7   ar
    26     7     8   ar
    27     8     9   ar
    28    13    14   ar
    29    14    15   ar
    30    15    10   ar
    31     9     1   ar
    32     8     3   ar
    33    31    25    1
    34    23    24    1
    35    30    34    1
    36    30    35    1
    37    19    21    1
    38    19    22    1
