@<TRIPOS>MOLECULE
*****
 36 40 0 0 0
SMALL
GASTEIGER

@<TRIPOS>ATOM
      1 C         138.4789  142.7358  164.2737 C.3     1  UNL1        0.1909
      2 C         139.4745  143.8317  164.5141 C.3     1  UNL1        0.1783
      3 O         140.3318  143.4320  165.6783 O.3     1  UNL1       -0.3267
      4 C         139.8660  142.0890  166.1574 C.3     1  UNL1        0.2296
      5 O         138.7209  141.6587  165.2894 O.3     1  UNL1       -0.3255
      6 C         140.9616  142.2454  167.1698 C.ar    1  UNL1        0.0409
      7 C         140.6239  142.5475  168.5998 C.ar    1  UNL1        0.0022
      8 C         141.7195  142.7038  169.6123 C.ar    1  UNL1        0.0113
      9 C         143.1529  142.5581  169.1949 C.ar    1  UNL1        0.0585
     10 CL        144.2485  142.7145  170.2074 Cl      1  UNL1       -0.0822
     11 C         143.4906  142.2560  167.7649 C.ar    1  UNL1        0.0226
     12 C         142.3950  142.0997  166.7525 C.ar    1  UNL1        0.0591
     13 CL        142.7327  141.7976  165.3225 Cl      1  UNL1       -0.0824
     14 C         137.4262  142.7198  163.2053 C.3     1  UNL1        0.2374
     15 O         137.0100  141.4205  162.5819 O.3     1  UNL1       -0.4727
     16 C         139.6839  139.4108  159.5716 C.ar    1  UNL1        0.0481
     17 C         139.3767  140.8734  159.4435 C.ar    1  UNL1        0.0176
     18 C         138.4854  141.5433  160.4469 C.ar    1  UNL1        0.0382
     19 C         137.9013  140.7506  161.5785 C.ar    1  UNL1        0.1388
     20 C         138.2085  139.2880  161.7066 C.ar    1  UNL1        0.0382
     21 C         139.0998  138.6181  160.7032 C.ar    1  UNL1        0.0176
     22 C         142.6582  135.8349  154.5104 C.3     1  UNL1        0.0948
     23 C         143.2490  136.7312  155.5579 C.2     1  UNL1        0.2262
     24 O         144.7311  136.9576  155.6021 O.2     1  UNL1       -0.2749
     25 N         142.3577  137.4011  156.5614 N.am    1  UNL1       -0.2760
     26 C         140.8756  137.1747  156.5172 C.3     1  UNL1        0.1148
     27 C         139.9843  137.8446  157.5206 C.3     1  UNL1        0.1123
     28 N         140.5752  138.7409  158.5682 N.pl3   1  UNL1       -0.3041
     29 C         142.0573  138.9673  158.6124 C.3     1  UNL1        0.1123
     30 C         142.9486  138.2974  157.6089 C.3     1  UNL1        0.1148
     31 C         139.6292  140.7787  166.8482 C.3     1  UNL1        0.1682
     32 N         139.6159  139.5049  166.0562 N.ar    1  UNL1       -0.3025
     33 C         138.4333  138.6048  165.8541 C.ar    1  UNL1        0.0982
     34 C         138.8694  137.4512  165.0003 C.ar    1  UNL1        0.1193
     35 N         140.3216  137.6384  164.6747 N.ar    1  UNL1       -0.2223
     36 C         140.7830  138.9077  165.3274 C.ar    1  UNL1        0.1788
@<TRIPOS>BOND
     1    22    23    1
     2    23    24    2
     3    23    25   am
     4    25    26    1
     5    26    27    1
     6    27    28    1
     7    28    16    1
     8    16    17   ar
     9    17    18   ar
    10    18    19   ar
    11    19    15    1
    12    15    14    1
    13    14     1    1
    14     1     2    1
    15     2     3    1
    16     3     4    1
    17     4    31    1
    18    31    32    1
    19    32    33   ar
    20    33    34   ar
    21    34    35   ar
    22    35    36   ar
    23     4     6    1
    24     6     7   ar
    25     7     8   ar
    26     8     9   ar
    27     9    10    1
    28     9    11   ar
    29    11    12   ar
    30    12    13    1
    31     4     5    1
    32    19    20   ar
    33    20    21   ar
    34    28    29    1
    35    29    30    1
    36    30    25    1
    37    21    16   ar
    38     5     1    1
    39    36    32   ar
    40    12     6   ar
@<TRIPOS>MOLECULE
*****
 36 40 0 0 0
SMALL
GASTEIGER

@<TRIPOS>ATOM
      1 C         143.1452  142.7284  164.7416 C.3     1  UNL1        0.1909
      2 C         143.3359  141.3158  165.2087 C.3     1  UNL1        0.1783
      3 O         141.9946  140.7735  165.6049 O.3     1  UNL1       -0.3267
      4 C         140.9750  141.8509  165.3826 C.3     1  UNL1        0.2296
      5 O         141.6860  143.0592  164.8491 O.3     1  UNL1       -0.3255
      6 C         140.0085  140.8231  165.8919 C.ar    1  UNL1        0.0409
      7 C         139.2828  139.9329  164.9270 C.ar    1  UNL1        0.0022
      8 C         138.3163  138.9050  165.4364 C.ar    1  UNL1        0.0113
      9 C         138.0756  138.7673  166.9105 C.ar    1  UNL1        0.0585
     10 CL        137.1091  137.7394  167.4198 Cl      1  UNL1       -0.0822
     11 C         138.8013  139.6575  167.8754 C.ar    1  UNL1        0.0226
     12 C         139.7677  140.6853  167.3661 C.ar    1  UNL1        0.0591
     13 CL        140.4935  141.5755  168.3309 Cl      1  UNL1       -0.0824
     14 C         144.2242  143.6486  164.2528 C.3     1  UNL1        0.2374
     15 O         144.5473  143.7151  162.7895 O.3     1  UNL1       -0.4727
     16 C         142.6163  140.8308  159.9256 C.ar    1  UNL1        0.0481
     17 C         143.7718  140.3864  160.7725 C.ar    1  UNL1        0.0176
     18 C         144.4154  141.3478  161.7272 C.ar    1  UNL1        0.0382
     19 C         143.9036  142.7536  161.8349 C.ar    1  UNL1        0.1388
     20 C         142.7481  143.1980  160.9880 C.ar    1  UNL1        0.0382
     21 C         142.1045  142.2366  160.0333 C.ar    1  UNL1        0.0176
     22 C         140.8873  136.0206  155.3296 C.3     1  UNL1        0.0948
     23 C         140.0415  136.9851  156.1071 C.2     1  UNL1        0.2262
     24 O         138.5521  136.9881  155.9298 O.2     1  UNL1       -0.2749
     25 N         140.6852  137.9465  157.0617 N.am    1  UNL1       -0.2760
     26 C         142.1747  137.9435  157.2389 C.3     1  UNL1        0.1148
     27 C         142.8184  138.9049  158.1936 C.3     1  UNL1        0.1123
     28 N         141.9726  139.8694  158.9710 N.pl3   1  UNL1       -0.3041
     29 C         140.4831  139.8724  158.7937 C.3     1  UNL1        0.1123
     30 C         139.8395  138.9110  157.8391 C.3     1  UNL1        0.1148
     31 C         139.7533  142.7136  165.2668 C.3     1  UNL1        0.1682
     32 N         139.3940  143.3321  163.9483 N.ar    1  UNL1       -0.3025
     33 C         139.4089  142.6412  162.6171 C.ar    1  UNL1        0.0982
     34 C         138.9809  143.6322  161.5757 C.ar    1  UNL1        0.1193
     35 N         138.7015  144.9357  162.2633 N.ar    1  UNL1       -0.2223
     36 C         138.9568  144.7502  163.7297 C.ar    1  UNL1        0.1788
@<TRIPOS>BOND
     1    22    23    1
     2    23    24    2
     3    23    25   am
     4    25    26    1
     5    26    27    1
     6    27    28    1
     7    28    16    1
     8    16    17   ar
     9    17    18   ar
    10    18    19   ar
    11    19    15    1
    12    15    14    1
    13    14     1    1
    14     1     2    1
    15     2     3    1
    16     3     4    1
    17     4    31    1
    18    31    32    1
    19    32    33   ar
    20    33    34   ar
    21    34    35   ar
    22    35    36   ar
    23     4     6    1
    24     6     7   ar
    25     7     8   ar
    26     8     9   ar
    27     9    10    1
    28     9    11   ar
    29    11    12   ar
    30    12    13    1
    31     4     5    1
    32    19    20   ar
    33    20    21   ar
    34    28    29    1
    35    29    30    1
    36    30    25    1
    37    21    16   ar
    38     5     1    1
    39    36    32   ar
    40    12     6   ar
@<TRIPOS>MOLECULE
*****
 36 40 0 0 0
SMALL
GASTEIGER

@<TRIPOS>ATOM
      1 C         138.5846  143.2018  164.4082 C.3     1  UNL1        0.1909
      2 C         139.6157  143.7751  165.3346 C.3     1  UNL1        0.1783
      3 O         140.1189  142.6666  166.2110 O.3     1  UNL1       -0.3267
      4 C         139.3988  141.4083  165.8262 C.3     1  UNL1        0.2296
      5 O         138.4505  141.7390  164.7120 O.3     1  UNL1       -0.3255
      6 C         140.2329  140.7873  166.9071 C.ar    1  UNL1        0.0409
      7 C         139.6290  140.5030  168.2505 C.ar    1  UNL1        0.0022
      8 C         140.4631  139.8820  169.3315 C.ar    1  UNL1        0.0113
      9 C         141.9011  139.5453  169.0693 C.ar    1  UNL1        0.0585
     10 CL        142.7353  138.9243  170.1503 Cl      1  UNL1       -0.0822
     11 C         142.5051  139.8297  167.7259 C.ar    1  UNL1        0.0226
     12 C         141.6710  140.4506  166.6449 C.ar    1  UNL1        0.0591
     13 CL        142.2748  140.7350  165.3016 Cl      1  UNL1       -0.0824
     14 C         137.8215  143.9585  163.3616 C.3     1  UNL1        0.2374
     15 O         138.4946  144.3514  162.0800 O.3     1  UNL1       -0.4727
     16 C         140.5760  141.2380  159.5852 C.ar    1  UNL1        0.0481
     17 C         139.0890  141.1778  159.7725 C.ar    1  UNL1        0.0176
     18 C         138.3952  142.2156  160.6041 C.ar    1  UNL1        0.0382
     19 C         139.1884  143.3136  161.2484 C.ar    1  UNL1        0.1388
     20 C         140.6754  143.3738  161.0611 C.ar    1  UNL1        0.0382
     21 C         141.3692  142.3360  160.2295 C.ar    1  UNL1        0.0176
     22 C         142.6723  135.7810  155.9691 C.3     1  UNL1        0.0948
     23 C         143.3512  137.0868  156.2587 C.2     1  UNL1        0.2262
     24 O         144.7239  137.3548  155.7167 O.2     1  UNL1       -0.2749
     25 N         142.6574  138.1246  157.0903 N.am    1  UNL1       -0.2760
     26 C         141.2847  137.8566  157.6323 C.3     1  UNL1        0.1148
     27 C         140.5909  138.8944  158.4639 C.3     1  UNL1        0.1123
     28 N         141.2698  140.2002  158.7536 N.pl3   1  UNL1       -0.3041
     29 C         142.6425  140.4682  158.2116 C.3     1  UNL1        0.1123
     30 C         143.3363  139.4304  157.3800 C.3     1  UNL1        0.1148
     31 C         138.8531  140.0201  165.6673 C.3     1  UNL1        0.1682
     32 N         139.3505  139.1409  164.5584 N.ar    1  UNL1       -0.3025
     33 C         139.3412  139.4755  163.0964 C.ar    1  UNL1        0.0982
     34 C         139.9295  138.3142  162.3513 C.ar    1  UNL1        0.1193
     35 N         140.3024  137.2618  163.3530 N.ar    1  UNL1       -0.2223
     36 C         139.9445  137.7727  164.7171 C.ar    1  UNL1        0.1788
@<TRIPOS>BOND
     1    22    23    1
     2    23    24    2
     3    23    25   am
     4    25    26    1
     5    26    27    1
     6    27    28    1
     7    28    16    1
     8    16    17   ar
     9    17    18   ar
    10    18    19   ar
    11    19    15    1
    12    15    14    1
    13    14     1    1
    14     1     2    1
    15     2     3    1
    16     3     4    1
    17     4    31    1
    18    31    32    1
    19    32    33   ar
    20    33    34   ar
    21    34    35   ar
    22    35    36   ar
    23     4     6    1
    24     6     7   ar
    25     7     8   ar
    26     8     9   ar
    27     9    10    1
    28     9    11   ar
    29    11    12   ar
    30    12    13    1
    31     4     5    1
    32    19    20   ar
    33    20    21   ar
    34    28    29    1
    35    29    30    1
    36    30    25    1
    37    21    16   ar
    38     5     1    1
    39    36    32   ar
    40    12     6   ar
@<TRIPOS>MOLECULE
*****
 36 40 0 0 0
SMALL
GASTEIGER

@<TRIPOS>ATOM
      1 C         143.0651  142.6985  164.7287 C.3     1  UNL1        0.1909
      2 C         143.2289  141.2387  165.0326 C.3     1  UNL1        0.1783
      3 O         141.9049  140.7111  165.5001 O.3     1  UNL1       -0.3267
      4 C         140.9228  141.8449  165.4853 C.3     1  UNL1        0.2296
      5 O         141.6398  143.0731  165.0085 O.3     1  UNL1       -0.3255
      6 C         139.9583  140.8084  165.9806 C.ar    1  UNL1        0.0409
      7 C         139.2282  139.9354  165.0033 C.ar    1  UNL1        0.0022
      8 C         138.2637  138.8989  165.4986 C.ar    1  UNL1        0.0113
      9 C         138.0292  138.7353  166.9711 C.ar    1  UNL1        0.0585
     10 CL        137.0647  137.6988  167.4664 Cl      1  UNL1       -0.0822
     11 C         138.7593  139.6083  167.9484 C.ar    1  UNL1        0.0226
     12 C         139.7238  140.6448  167.4531 C.ar    1  UNL1        0.0591
     13 CL        140.4538  141.5178  168.4303 Cl      1  UNL1       -0.0824
     14 C         144.1382  143.6215  164.2322 C.3     1  UNL1        0.2374
     15 O         144.3488  143.8026  162.7582 O.3     1  UNL1       -0.4727
     16 C         141.1880  142.4569  159.8516 C.ar    1  UNL1        0.0481
     17 C         141.1508  143.8491  160.4086 C.ar    1  UNL1        0.0176
     18 C         142.2044  144.2977  161.3775 C.ar    1  UNL1        0.0382
     19 C         143.2952  143.3540  161.7893 C.ar    1  UNL1        0.1388
     20 C         143.3324  141.9618  161.2323 C.ar    1  UNL1        0.0382
     21 C         142.2788  141.5133  160.2634 C.ar    1  UNL1        0.0176
     22 C         135.8086  141.5559  155.6684 C.3     1  UNL1        0.0948
     23 C         136.9737  140.6627  155.9761 C.2     1  UNL1        0.2262
     24 O         137.0852  139.3209  155.3149 O.2     1  UNL1       -0.2749
     25 N         138.0273  141.1112  156.9449 N.am    1  UNL1       -0.2760
     26 C         137.9158  142.4530  157.6061 C.3     1  UNL1        0.1148
     27 C         138.9693  142.9015  158.5750 C.3     1  UNL1        0.1123
     28 N         140.1344  142.0084  158.8827 N.pl3   1  UNL1       -0.3041
     29 C         140.2459  140.6666  158.2215 C.3     1  UNL1        0.1123
     30 C         139.1923  140.2181  157.2526 C.3     1  UNL1        0.1148
     31 C         139.7391  142.7620  165.5740 C.3     1  UNL1        0.1682
     32 N         139.2107  143.4265  164.3373 N.ar    1  UNL1       -0.3025
     33 C         139.2929  144.8900  164.0193 C.ar    1  UNL1        0.0982
     34 C         138.6404  145.1122  162.6870 C.ar    1  UNL1        0.1193
     35 N         138.1551  143.7859  162.1817 N.ar    1  UNL1       -0.2223
     36 C         138.5075  142.7441  163.2017 C.ar    1  UNL1        0.1788
@<TRIPOS>BOND
     1    22    23    1
     2    23    24    2
     3    23    25   am
     4    25    26    1
     5    26    27    1
     6    27    28    1
     7    28    16    1
     8    16    17   ar
     9    17    18   ar
    10    18    19   ar
    11    19    15    1
    12    15    14    1
    13    14     1    1
    14     1     2    1
    15     2     3    1
    16     3     4    1
    17     4    31    1
    18    31    32    1
    19    32    33   ar
    20    33    34   ar
    21    34    35   ar
    22    35    36   ar
    23     4     6    1
    24     6     7   ar
    25     7     8   ar
    26     8     9   ar
    27     9    10    1
    28     9    11   ar
    29    11    12   ar
    30    12    13    1
    31     4     5    1
    32    19    20   ar
    33    20    21   ar
    34    28    29    1
    35    29    30    1
    36    30    25    1
    37    21    16   ar
    38     5     1    1
    39    36    32   ar
    40    12     6   ar
@<TRIPOS>MOLECULE
*****
 36 40 0 0 0
SMALL
GASTEIGER

@<TRIPOS>ATOM
      1 C         143.9166  141.2583  164.4369 C.3     1  UNL1        0.1909
      2 C         143.6856  139.7883  164.6261 C.3     1  UNL1        0.1783
      3 O         142.3049  139.6038  165.1825 O.3     1  UNL1       -0.3267
      4 C         141.6825  140.9598  165.3373 C.3     1  UNL1        0.2296
      5 O         142.6786  141.9824  164.8764 O.3     1  UNL1       -0.3255
      6 C         140.5050  140.1871  165.8529 C.ar    1  UNL1        0.0409
      7 C         140.0668  140.3502  167.2783 C.ar    1  UNL1        0.0022
      8 C         138.8891  139.5774  167.7940 C.ar    1  UNL1        0.0113
      9 C         138.1497  138.6415  166.8845 C.ar    1  UNL1        0.0585
     10 CL        136.9720  137.8687  167.4002 Cl      1  UNL1       -0.0822
     11 C         138.5878  138.4784  165.4591 C.ar    1  UNL1        0.0226
     12 C         139.7654  139.2511  164.9435 C.ar    1  UNL1        0.0591
     13 CL        140.2036  139.0881  163.5182 Cl      1  UNL1       -0.0824
     14 C         145.1661  141.8928  163.9021 C.3     1  UNL1        0.2374
     15 O         145.4650  141.8391  162.4332 O.3     1  UNL1       -0.4727
     16 C         142.5560  143.5894  159.4796 C.ar    1  UNL1        0.0481
     17 C         142.5762  144.0841  160.8955 C.ar    1  UNL1        0.0176
     18 C         143.5459  143.5007  161.8800 C.ar    1  UNL1        0.0382
     19 C         144.4954  142.4225  161.4486 C.ar    1  UNL1        0.1388
     20 C         144.4751  141.9279  160.0327 C.ar    1  UNL1        0.0382
     21 C         143.5055  142.5113  159.0482 C.ar    1  UNL1        0.0176
     22 C         138.8786  147.3178  155.0269 C.3     1  UNL1        0.0948
     23 C         138.6773  145.9233  155.5414 C.2     1  UNL1        0.2262
     24 O         137.5063  145.1122  155.0714 O.2     1  UNL1       -0.2749
     25 N         139.6470  145.3398  156.5259 N.am    1  UNL1       -0.2760
     26 C         140.8180  146.1509  156.9959 C.3     1  UNL1        0.1148
     27 C         141.7876  145.5674  157.9805 C.3     1  UNL1        0.1123
     28 N         141.5863  144.1729  158.4950 N.pl3   1  UNL1       -0.3041
     29 C         140.4153  143.3619  158.0250 C.3     1  UNL1        0.1123
     30 C         139.4457  143.9453  157.0405 C.3     1  UNL1        0.1148
     31 C         140.8140  142.1544  165.5998 C.3     1  UNL1        0.1682
     32 N         140.3237  142.9913  164.4556 N.ar    1  UNL1       -0.3025
     33 C         140.2180  144.4874  164.4395 C.ar    1  UNL1        0.0982
     34 C         139.6821  144.8998  163.1006 C.ar    1  UNL1        0.1193
     35 N         139.4566  143.6585  162.2892 N.ar    1  UNL1       -0.2223
     36 C         139.8531  142.4790  163.1267 C.ar    1  UNL1        0.1788
@<TRIPOS>BOND
     1    22    23    1
     2    23    24    2
     3    23    25   am
     4    25    26    1
     5    26    27    1
     6    27    28    1
     7    28    16    1
     8    16    17   ar
     9    17    18   ar
    10    18    19   ar
    11    19    15    1
    12    15    14    1
    13    14     1    1
    14     1     2    1
    15     2     3    1
    16     3     4    1
    17     4    31    1
    18    31    32    1
    19    32    33   ar
    20    33    34   ar
    21    34    35   ar
    22    35    36   ar
    23     4     6    1
    24     6     7   ar
    25     7     8   ar
    26     8     9   ar
    27     9    10    1
    28     9    11   ar
    29    11    12   ar
    30    12    13    1
    31     4     5    1
    32    19    20   ar
    33    20    21   ar
    34    28    29    1
    35    29    30    1
    36    30    25    1
    37    21    16   ar
    38     5     1    1
    39    36    32   ar
    40    12     6   ar
@<TRIPOS>MOLECULE
*****
 36 40 0 0 0
SMALL
GASTEIGER

@<TRIPOS>ATOM
      1 C         141.6759  143.9695  164.2382 C.3     1  UNL1        0.1909
      2 C         140.1764  143.9428  164.2661 C.3     1  UNL1        0.1783
      3 O         139.7477  142.6674  164.9291 O.3     1  UNL1       -0.3267
      4 C         140.9822  141.9058  165.3109 C.3     1  UNL1        0.2296
      5 O         142.1740  142.7105  164.8840 O.3     1  UNL1       -0.3255
      6 C         140.0060  140.8979  165.8408 C.ar    1  UNL1        0.0409
      7 C         139.9088  140.6522  167.3175 C.ar    1  UNL1        0.0022
      8 C         138.9326  139.6442  167.8474 C.ar    1  UNL1        0.0113
      9 C         138.0535  138.8819  166.9009 C.ar    1  UNL1        0.0585
     10 CL        137.0772  137.8739  167.4308 Cl      1  UNL1       -0.0822
     11 C         138.1507  139.1275  165.4242 C.ar    1  UNL1        0.0226
     12 C         139.1269  140.1354  164.8943 C.ar    1  UNL1        0.0591
     13 CL        139.2241  140.3811  163.4178 Cl      1  UNL1       -0.0824
     14 C         142.5277  145.0631  163.6652 C.3     1  UNL1        0.2374
     15 O         143.3099  144.8238  162.4079 O.3     1  UNL1       -0.4727
     16 C         142.2676  141.3567  159.7352 C.ar    1  UNL1        0.0481
     17 C         141.4224  142.5958  159.7203 C.ar    1  UNL1        0.0176
     18 C         141.7698  143.7514  160.6112 C.ar    1  UNL1        0.0382
     19 C         142.9625  143.6681  161.5170 C.ar    1  UNL1        0.1388
     20 C         143.8077  142.4290  161.5319 C.ar    1  UNL1        0.0382
     21 C         143.4603  141.2734  160.6410 C.ar    1  UNL1        0.0176
     22 C         139.6179  136.7663  155.3584 C.3     1  UNL1        0.0948
     23 C         140.8779  136.7340  156.1716 C.2     1  UNL1        0.2262
     24 O         141.7904  135.5461  156.0940 O.2     1  UNL1       -0.2749
     25 N         141.2253  137.8897  157.0625 N.am    1  UNL1       -0.2760
     26 C         140.3128  139.0776  157.1401 C.3     1  UNL1        0.1148
     27 C         140.6602  140.2333  158.0310 C.3     1  UNL1        0.1123
     28 N         141.9202  140.2010  158.8443 N.pl3   1  UNL1       -0.3041
     29 C         142.8327  139.0131  158.7666 C.3     1  UNL1        0.1123
     30 C         142.4853  137.8574  157.8758 C.3     1  UNL1        0.1148
     31 C         142.0128  140.9335  165.8035 C.3     1  UNL1        0.1682
     32 N         142.9012  140.2227  164.8261 N.ar    1  UNL1       -0.3025
     33 C         142.4657  139.1934  163.8258 C.ar    1  UNL1        0.0982
     34 C         143.6764  138.7510  163.0588 C.ar    1  UNL1        0.1193
     35 N         144.8603  139.5069  163.5851 N.ar    1  UNL1       -0.2223
     36 C         144.3812  140.4165  164.6773 C.ar    1  UNL1        0.1788
@<TRIPOS>BOND
     1    22    23    1
     2    23    24    2
     3    23    25   am
     4    25    26    1
     5    26    27    1
     6    27    28    1
     7    28    16    1
     8    16    17   ar
     9    17    18   ar
    10    18    19   ar
    11    19    15    1
    12    15    14    1
    13    14     1    1
    14     1     2    1
    15     2     3    1
    16     3     4    1
    17     4    31    1
    18    31    32    1
    19    32    33   ar
    20    33    34   ar
    21    34    35   ar
    22    35    36   ar
    23     4     6    1
    24     6     7   ar
    25     7     8   ar
    26     8     9   ar
    27     9    10    1
    28     9    11   ar
    29    11    12   ar
    30    12    13    1
    31     4     5    1
    32    19    20   ar
    33    20    21   ar
    34    28    29    1
    35    29    30    1
    36    30    25    1
    37    21    16   ar
    38     5     1    1
    39    36    32   ar
    40    12     6   ar
@<TRIPOS>MOLECULE
*****
 36 40 0 0 0
SMALL
GASTEIGER

@<TRIPOS>ATOM
      1 C         139.0314  143.2959  163.9254 C.3     1  UNL1        0.1909
      2 C         138.4082  142.1624  164.6849 C.3     1  UNL1        0.1783
      3 O         139.4296  141.6317  165.6467 O.3     1  UNL1       -0.3267
      4 C         140.6842  142.4372  165.4816 C.3     1  UNL1        0.2296
      5 O         140.4381  143.4657  164.4178 O.3     1  UNL1       -0.3255
      6 C         141.2158  141.5378  166.5579 C.ar    1  UNL1        0.0409
      7 C         141.9310  140.2712  166.1914 C.ar    1  UNL1        0.0022
      8 C         142.4626  139.3717  167.2677 C.ar    1  UNL1        0.0113
      9 C         142.2790  139.7388  168.7104 C.ar    1  UNL1        0.0585
     10 CL        142.8106  138.8394  169.7867 Cl      1  UNL1       -0.0822
     11 C         141.5637  141.0054  169.0769 C.ar    1  UNL1        0.0226
     12 C         141.0321  141.9048  168.0007 C.ar    1  UNL1        0.0591
     13 CL        140.3169  143.1713  168.3671 Cl      1  UNL1       -0.0824
     14 C         138.3650  144.1156  162.8606 C.3     1  UNL1        0.2374
     15 O         137.7372  143.4405  161.6773 O.3     1  UNL1       -0.4727
     16 C         140.1715  140.6406  159.1308 C.ar    1  UNL1        0.0481
     17 C         140.5376  142.0931  159.2091 C.ar    1  UNL1        0.0176
     18 C         139.7262  143.0264  160.0580 C.ar    1  UNL1        0.0382
     19 C         138.5486  142.5072  160.8285 C.ar    1  UNL1        0.1388
     20 C         138.1825  141.0547  160.7501 C.ar    1  UNL1        0.0382
     21 C         138.9939  140.1214  159.9013 C.ar    1  UNL1        0.0176
     22 C         142.7650  135.7191  155.0931 C.3     1  UNL1        0.0948
     23 C         143.4172  136.9075  155.7353 C.2     1  UNL1        0.2262
     24 O         144.8808  137.1625  155.5287 O.2     1  UNL1       -0.2749
     25 N         142.6057  137.8408  156.5842 N.am    1  UNL1       -0.2760
     26 C         141.1421  137.5857  156.7908 C.3     1  UNL1        0.1148
     27 C         140.3307  138.5190  157.6397 C.3     1  UNL1        0.1123
     28 N         140.9829  139.7073  158.2819 N.pl3   1  UNL1       -0.3041
     29 C         142.4465  139.9624  158.0753 C.3     1  UNL1        0.1123
     30 C         143.2579  139.0291  157.2264 C.3     1  UNL1        0.1148
     31 C         142.0499  143.0547  165.5415 C.3     1  UNL1        0.1682
     32 N         142.8229  143.2897  164.2777 N.ar    1  UNL1       -0.3025
     33 C         143.1350  142.2617  163.2310 C.ar    1  UNL1        0.0982
     34 C         143.9245  142.9306  162.1452 C.ar    1  UNL1        0.1193
     35 N         144.1004  144.3721  162.5208 N.ar    1  UNL1       -0.2223
     36 C         143.4196  144.5940  163.8388 C.ar    1  UNL1        0.1788
@<TRIPOS>BOND
     1    22    23    1
     2    23    24    2
     3    23    25   am
     4    25    26    1
     5    26    27    1
     6    27    28    1
     7    28    16    1
     8    16    17   ar
     9    17    18   ar
    10    18    19   ar
    11    19    15    1
    12    15    14    1
    13    14     1    1
    14     1     2    1
    15     2     3    1
    16     3     4    1
    17     4    31    1
    18    31    32    1
    19    32    33   ar
    20    33    34   ar
    21    34    35   ar
    22    35    36   ar
    23     4     6    1
    24     6     7   ar
    25     7     8   ar
    26     8     9   ar
    27     9    10    1
    28     9    11   ar
    29    11    12   ar
    30    12    13    1
    31     4     5    1
    32    19    20   ar
    33    20    21   ar
    34    28    29    1
    35    29    30    1
    36    30    25    1
    37    21    16   ar
    38     5     1    1
    39    36    32   ar
    40    12     6   ar
@<TRIPOS>MOLECULE
*****
 36 40 0 0 0
SMALL
GASTEIGER

@<TRIPOS>ATOM
      1 C         143.7481  143.1587  164.0755 C.3     1  UNL1        0.1909
      2 C         144.3520  143.1955  165.4480 C.3     1  UNL1        0.1783
      3 O         143.3820  142.5585  166.3985 O.3     1  UNL1       -0.3267
      4 C         142.1786  142.1280  165.6133 C.3     1  UNL1        0.2296
      5 O         142.4048  142.4989  164.1776 O.3     1  UNL1       -0.3255
      6 C         141.6790  141.6460  166.9429 C.ar    1  UNL1        0.0409
      7 C         140.8318  142.5432  167.7959 C.ar    1  UNL1        0.0022
      8 C         140.3321  142.0612  169.1256 C.ar    1  UNL1        0.0113
      9 C         140.6797  140.6821  169.6023 C.ar    1  UNL1        0.0585
     10 CL        140.1800  140.2001  170.9320 Cl      1  UNL1       -0.0822
     11 C         141.5269  139.7849  168.7494 C.ar    1  UNL1        0.0226
     12 C         142.0265  140.2669  167.4198 C.ar    1  UNL1        0.0591
     13 CL        142.8737  139.3698  166.5669 Cl      1  UNL1       -0.0824
     14 C         144.3770  143.6886  162.8210 C.3     1  UNL1        0.2374
     15 O         143.6132  144.6322  161.9399 O.3     1  UNL1       -0.4727
     16 C         140.2739  143.0870  159.3493 C.ar    1  UNL1        0.0481
     17 C         141.6065  142.3985  159.3449 C.ar    1  UNL1        0.0176
     18 C         142.7197  142.9136  160.2084 C.ar    1  UNL1        0.0382
     19 C         142.5001  144.1171  161.0764 C.ar    1  UNL1        0.1388
     20 C         141.1675  144.8055  161.0807 C.ar    1  UNL1        0.0382
     21 C         140.0544  144.2905  160.2172 C.ar    1  UNL1        0.0176
     22 C         135.4166  141.7817  154.6639 C.3     1  UNL1        0.0948
     23 C         135.8214  141.0267  155.8952 C.2     1  UNL1        0.2262
     24 O         135.1132  139.7566  156.2629 O.2     1  UNL1       -0.2749
     25 N         136.9346  141.5418  156.7587 N.am    1  UNL1       -0.2760
     26 C         137.6428  142.8118  156.3910 C.3     1  UNL1        0.1148
     27 C         138.7559  143.3269  157.2545 C.3     1  UNL1        0.1123
     28 N         139.1608  142.5719  158.4858 N.pl3   1  UNL1       -0.3041
     29 C         138.4525  141.3018  158.8535 C.3     1  UNL1        0.1123
     30 C         137.3394  140.7868  157.9900 C.3     1  UNL1        0.1148
     31 C         140.8707  141.5968  165.1061 C.3     1  UNL1        0.1682
     32 N         139.8849  142.5237  164.4588 N.ar    1  UNL1       -0.3025
     33 C         139.8273  144.0121  164.6352 C.ar    1  UNL1        0.0982
     34 C         138.6905  144.5333  163.8069 C.ar    1  UNL1        0.1193
     35 N         138.0456  143.3670  163.1187 N.ar    1  UNL1       -0.2223
     36 C         138.7838  142.1250  163.5216 C.ar    1  UNL1        0.1788
@<TRIPOS>BOND
     1    22    23    1
     2    23    24    2
     3    23    25   am
     4    25    26    1
     5    26    27    1
     6    27    28    1
     7    28    16    1
     8    16    17   ar
     9    17    18   ar
    10    18    19   ar
    11    19    15    1
    12    15    14    1
    13    14     1    1
    14     1     2    1
    15     2     3    1
    16     3     4    1
    17     4    31    1
    18    31    32    1
    19    32    33   ar
    20    33    34   ar
    21    34    35   ar
    22    35    36   ar
    23     4     6    1
    24     6     7   ar
    25     7     8   ar
    26     8     9   ar
    27     9    10    1
    28     9    11   ar
    29    11    12   ar
    30    12    13    1
    31     4     5    1
    32    19    20   ar
    33    20    21   ar
    34    28    29    1
    35    29    30    1
    36    30    25    1
    37    21    16   ar
    38     5     1    1
    39    36    32   ar
    40    12     6   ar
@<TRIPOS>MOLECULE
*****
 36 40 0 0 0
SMALL
GASTEIGER

@<TRIPOS>ATOM
      1 C         144.2097  140.9405  164.4291 C.3     1  UNL1        0.1909
      2 C         143.8622  139.4985  164.6523 C.3     1  UNL1        0.1783
      3 O         142.4759  139.4385  165.2220 O.3     1  UNL1       -0.3267
      4 C         141.9665  140.8435  165.3509 C.3     1  UNL1        0.2296
      5 O         143.0381  141.7719  164.8608 O.3     1  UNL1       -0.3255
      6 C         140.7348  140.1800  165.8914 C.ar    1  UNL1        0.0409
      7 C         140.3735  140.3346  167.3391 C.ar    1  UNL1        0.0022
      8 C         139.1417  139.6710  167.8797 C.ar    1  UNL1        0.0113
      9 C         138.2711  138.8529  166.9727 C.ar    1  UNL1        0.0585
     10 CL        137.0392  138.1893  167.5133 Cl      1  UNL1       -0.0822
     11 C         138.6323  138.6982  165.5250 C.ar    1  UNL1        0.0226
     12 C         139.8641  139.3618  164.9845 C.ar    1  UNL1        0.0591
     13 CL        140.2254  139.2072  163.5369 Cl      1  UNL1       -0.0824
     14 C         145.5018  141.4601  163.8719 C.3     1  UNL1        0.2374
     15 O         145.6450  141.6868  162.3961 O.3     1  UNL1       -0.4727
     16 C         141.9805  142.0894  159.8156 C.ar    1  UNL1        0.0481
     17 C         142.5367  140.7304  160.1216 C.ar    1  UNL1        0.0176
     18 C         143.7582  140.5962  160.9818 C.ar    1  UNL1        0.0382
     19 C         144.4235  141.8210  161.5360 C.ar    1  UNL1        0.1388
     20 C         143.8673  143.1800  161.2299 C.ar    1  UNL1        0.0382
     21 C         142.6458  143.3142  160.3698 C.ar    1  UNL1        0.0176
     22 C         136.2044  141.4408  156.1460 C.3     1  UNL1        0.0948
     23 C         137.0945  142.6263  156.3749 C.2     1  UNL1        0.2262
     24 O         136.7631  143.9459  155.7435 O.2     1  UNL1       -0.2749
     25 N         138.3160  142.4920  157.2350 N.am    1  UNL1       -0.2760
     26 C         138.6474  141.1724  157.8664 C.3     1  UNL1        0.1148
     27 C         139.8689  141.0382  158.7266 C.3     1  UNL1        0.1123
     28 N         140.7590  142.2236  158.9554 N.pl3   1  UNL1       -0.3041
     29 C         140.4276  143.5433  158.3241 C.3     1  UNL1        0.1123
     30 C         139.2061  143.6775  157.4639 C.3     1  UNL1        0.1148
     31 C         141.1997  142.1099  165.5927 C.3     1  UNL1        0.1682
     32 N         140.8362  142.9984  164.4402 N.ar    1  UNL1       -0.3025
     33 C         139.8035  142.7054  163.3927 C.ar    1  UNL1        0.0982
     34 C         139.7706  143.8618  162.4379 C.ar    1  UNL1        0.1193
     35 N         140.7831  144.8696  162.8955 N.ar    1  UNL1       -0.2223
     36 C         141.4417  144.3359  164.1330 C.ar    1  UNL1        0.1788
@<TRIPOS>BOND
     1    22    23    1
     2    23    24    2
     3    23    25   am
     4    25    26    1
     5    26    27    1
     6    27    28    1
     7    28    16    1
     8    16    17   ar
     9    17    18   ar
    10    18    19   ar
    11    19    15    1
    12    15    14    1
    13    14     1    1
    14     1     2    1
    15     2     3    1
    16     3     4    1
    17     4    31    1
    18    31    32    1
    19    32    33   ar
    20    33    34   ar
    21    34    35   ar
    22    35    36   ar
    23     4     6    1
    24     6     7   ar
    25     7     8   ar
    26     8     9   ar
    27     9    10    1
    28     9    11   ar
    29    11    12   ar
    30    12    13    1
    31     4     5    1
    32    19    20   ar
    33    20    21   ar
    34    28    29    1
    35    29    30    1
    36    30    25    1
    37    21    16   ar
    38     5     1    1
    39    36    32   ar
    40    12     6   ar
