@<TRIPOS>MOLECULE
*****
 28 30 0 0 0
SMALL
GASTEIGER

@<TRIPOS>ATOM
      1 N         139.1163  138.4509  164.4548 N.am    1  UNL1       -0.2607
      2 C         139.9314  139.7089  164.5095 C.3     1  UNL1        0.1227
      3 C         139.9313  140.2002  165.9268 C.ar    1  UNL1        0.0196
      4 C         139.1161  139.2458  166.7481 C.ar    1  UNL1        0.1319
      5 N         138.9377  139.4844  168.2182 N.ar    1  UNL1       -0.2456
      6 C         139.5746  140.6775  168.8671 C.ar    1  UNL1        0.0568
      7 C         139.3963  140.9161  170.3371 C.3     1  UNL1        0.0518
      8 C         140.3899  141.6319  168.0458 C.ar    1  UNL1        0.0068
      9 C         140.5682  141.3932  166.5756 C.ar    1  UNL1       -0.0015
     10 C         138.6124  138.1647  165.8384 C.2     1  UNL1        0.2671
     11 O         137.7552  137.0016  166.2415 O.2     1  UNL1       -0.2682
     12 C         141.3834  142.3476  165.7543 C.ar    1  UNL1        0.0102
     13 C         142.8679  142.1634  165.6441 C.ar    1  UNL1        0.0017
     14 C         143.6832  143.1178  164.8228 C.ar    1  UNL1        0.0114
     15 C         143.0139  144.2564  164.1117 C.ar    1  UNL1        0.0585
     16 CL        143.8291  145.2108  163.2904 Cl      1  UNL1       -0.0822
     17 C         141.5293  144.4406  164.2219 C.ar    1  UNL1        0.0228
     18 C         140.7140  143.4862  165.0432 C.ar    1  UNL1        0.0585
     19 CL        139.2295  143.6704  165.1535 Cl      1  UNL1       -0.0822
     20 C         141.0268  142.8249  168.6946 C.3     1  UNL1        0.0934
     21 N         142.4010  142.7130  169.2853 N.3     1  UNL1       -0.3174
     22 H         142.3775  142.0773  170.0826 H       1  UNL1        0.1192
     23 H         142.7146  143.6333  169.5933 H       1  UNL1        0.1192
     24 C         138.8515  137.6243  163.2315 C.3     1  UNL1        0.2045
     25 C         139.5265  137.9645  161.9359 C.2     1  UNL1        0.3377
     26 O         140.9472  137.5458  161.6978 O.2     1  UNL1       -0.2482
     27 C         137.7824  139.7717  161.2709 C.3     1  UNL1        0.2557
     28 O         138.7811  138.7235  160.8784 O.3     1  UNL1       -0.4432
@<TRIPOS>BOND
     1    27    28    1
     2    28    25    1
     3    25    26    2
     4    25    24    1
     5    24     1    1
     6     1     2    1
     7     2     3    1
     8     3     4   ar
     9     4     5   ar
    10     5     6   ar
    11     6     7    1
    12     6     8   ar
    13     8    20    1
    14    20    21    1
    15     8     9   ar
    16     9    12    1
    17    12    13   ar
    18    13    14   ar
    19    14    15   ar
    20    15    16    1
    21    15    17   ar
    22    17    18   ar
    23    18    19    1
    24     4    10    1
    25    10    11    2
    26    10     1   am
    27     9     3   ar
    28    18    12   ar
    29    21    22    1
    30    21    23    1
@<TRIPOS>MOLECULE
*****
 28 30 0 0 0
SMALL
GASTEIGER

@<TRIPOS>ATOM
      1 N         140.2099  142.0800  168.4739 N.am    1  UNL1       -0.2607
      2 C         140.0415  142.6498  167.0966 C.3     1  UNL1        0.1227
      3 C         139.7158  141.5207  166.1643 C.ar    1  UNL1        0.0196
      4 C         139.6829  140.2530  166.9655 C.ar    1  UNL1        0.1319
      5 N         139.3792  138.9477  166.2918 N.ar    1  UNL1       -0.2456
      6 C         139.1083  138.9101  164.8169 C.ar    1  UNL1        0.0568
      7 C         138.8046  137.6048  164.1432 C.3     1  UNL1        0.0518
      8 C         139.1413  140.1778  164.0157 C.ar    1  UNL1        0.0068
      9 C         139.4450  141.4831  164.6895 C.ar    1  UNL1       -0.0015
     10 C         139.9882  140.5987  168.3928 C.2     1  UNL1        0.2671
     11 O         140.0594  139.6326  169.5381 O.2     1  UNL1       -0.2682
     12 C         139.4779  142.7509  163.8884 C.ar    1  UNL1        0.0102
     13 C         138.2187  143.5383  163.6784 C.ar    1  UNL1        0.0017
     14 C         138.2516  144.8060  162.8773 C.ar    1  UNL1        0.0114
     15 C         139.5438  145.2863  162.2861 C.ar    1  UNL1        0.0585
     16 CL        139.5767  146.5540  161.4849 Cl      1  UNL1       -0.0822
     17 C         140.8032  144.4988  162.4960 C.ar    1  UNL1        0.0228
     18 C         140.7702  143.2311  163.2972 C.ar    1  UNL1        0.0585
     19 CL        142.0295  142.4436  163.5071 Cl      1  UNL1       -0.0822
     20 C         138.8704  140.1402  162.5409 C.3     1  UNL1        0.0934
     21 N         137.4656  140.2746  162.0327 N.3     1  UNL1       -0.3174
     22 H         136.9186  139.4656  162.3274 H       1  UNL1        0.1192
     23 H         137.4759  140.3252  161.0140 H       1  UNL1        0.1192
     24 C         140.5416  142.8553  169.7144 C.3     1  UNL1        0.2045
     25 C         141.2823  142.1923  170.8376 C.2     1  UNL1        0.3377
     26 O         140.6719  142.1327  172.2065 O.2     1  UNL1       -0.2482
     27 C         143.6484  142.3304  169.7734 C.3     1  UNL1        0.2557
     28 O         142.6334  141.5889  170.5920 O.3     1  UNL1       -0.4432
@<TRIPOS>BOND
     1    27    28    1
     2    28    25    1
     3    25    26    2
     4    25    24    1
     5    24     1    1
     6     1     2    1
     7     2     3    1
     8     3     4   ar
     9     4     5   ar
    10     5     6   ar
    11     6     7    1
    12     6     8   ar
    13     8    20    1
    14    20    21    1
    15     8     9   ar
    16     9    12    1
    17    12    13   ar
    18    13    14   ar
    19    14    15   ar
    20    15    16    1
    21    15    17   ar
    22    17    18   ar
    23    18    19    1
    24     4    10    1
    25    10    11    2
    26    10     1   am
    27     9     3   ar
    28    18    12   ar
    29    21    22    1
    30    21    23    1
@<TRIPOS>MOLECULE
*****
 28 30 0 0 0
SMALL
GASTEIGER

@<TRIPOS>ATOM
      1 N         139.0697  140.1655  168.1839 N.am    1  UNL1       -0.2607
      2 C         139.8950  140.9791  167.2316 C.3     1  UNL1        0.1227
      3 C         139.6847  140.4315  165.8511 C.ar    1  UNL1        0.0196
      4 C         138.7293  139.2793  165.9502 C.ar    1  UNL1        0.1319
      5 N         138.3288  138.5287  164.7148 N.ar    1  UNL1       -0.2456
      6 C         138.8838  138.9303  163.3803 C.ar    1  UNL1        0.0568
      7 C         138.4834  138.1797  162.1449 C.3     1  UNL1        0.0518
      8 C         139.8392  140.0824  163.2812 C.ar    1  UNL1        0.0068
      9 C         140.2396  140.8330  164.5167 C.ar    1  UNL1       -0.0015
     10 C         138.3492  139.1150  167.3919 C.2     1  UNL1        0.2671
     11 O         137.4130  138.0815  167.9446 O.2     1  UNL1       -0.2682
     12 C         141.1950  141.9851  164.4177 C.ar    1  UNL1        0.0102
     13 C         140.6755  143.3718  164.1782 C.ar    1  UNL1        0.0017
     14 C         141.6309  144.5239  164.0792 C.ar    1  UNL1        0.0114
     15 C         143.1058  144.2894  164.2196 C.ar    1  UNL1        0.0585
     16 CL        144.0612  145.4415  164.1206 Cl      1  UNL1       -0.0822
     17 C         143.6253  142.9027  164.4591 C.ar    1  UNL1        0.0228
     18 C         142.6699  141.7506  164.5581 C.ar    1  UNL1        0.0585
     19 CL        143.1894  140.3640  164.7975 Cl      1  UNL1       -0.0822
     20 C         140.3942  140.4839  161.9468 C.3     1  UNL1        0.0934
     21 N         141.6815  139.8878  161.4598 N.3     1  UNL1       -0.3174
     22 H         142.4465  140.1927  162.0616 H       1  UNL1        0.1192
     23 H         141.8581  140.1950  160.5034 H       1  UNL1        0.1192
     24 C         138.9804  140.3670  169.6676 C.3     1  UNL1        0.2045
     25 C         140.1987  140.1856  170.5238 C.2     1  UNL1        0.3377
     26 O         140.4116  141.0639  171.7210 O.2     1  UNL1       -0.2482
     27 C         142.4868  139.5005  169.5014 C.3     1  UNL1        0.2557
     28 O         141.2040  139.1259  170.1827 O.3     1  UNL1       -0.4432
@<TRIPOS>BOND
     1    27    28    1
     2    28    25    1
     3    25    26    2
     4    25    24    1
     5    24     1    1
     6     1     2    1
     7     2     3    1
     8     3     4   ar
     9     4     5   ar
    10     5     6   ar
    11     6     7    1
    12     6     8   ar
    13     8    20    1
    14    20    21    1
    15     8     9   ar
    16     9    12    1
    17    12    13   ar
    18    13    14   ar
    19    14    15   ar
    20    15    16    1
    21    15    17   ar
    22    17    18   ar
    23    18    19    1
    24     4    10    1
    25    10    11    2
    26    10     1   am
    27     9     3   ar
    28    18    12   ar
    29    21    22    1
    30    21    23    1
@<TRIPOS>MOLECULE
*****
 28 30 0 0 0
SMALL
GASTEIGER

@<TRIPOS>ATOM
      1 N         140.9687  144.0015  163.4891 N.am    1  UNL1       -0.2607
      2 C         140.4665  142.7991  164.2319 C.3     1  UNL1        0.1227
      3 C         141.6063  141.8351  164.3783 C.ar    1  UNL1        0.0196
      4 C         142.8131  142.4418  163.7259 C.ar    1  UNL1        0.1319
      5 N         144.1149  141.6966  163.7165 N.ar    1  UNL1       -0.2456
      6 C         144.2099  140.3448  164.3597 C.ar    1  UNL1        0.0568
      7 C         145.5117  139.5997  164.3503 C.3     1  UNL1        0.0518
      8 C         143.0032  139.7381  165.0121 C.ar    1  UNL1        0.0068
      9 C         141.7013  140.4833  165.0214 C.ar    1  UNL1       -0.0015
     10 C         142.4190  143.7807  163.1763 C.2     1  UNL1        0.2671
     11 O         143.3175  144.7317  162.4427 O.2     1  UNL1       -0.2682
     12 C         140.4946  139.8767  165.6739 C.ar    1  UNL1        0.0102
     13 C         140.1598  140.2173  167.0958 C.ar    1  UNL1        0.0017
     14 C         138.9531  139.6106  167.7482 C.ar    1  UNL1        0.0114
     15 C         138.0810  138.6633  166.9787 C.ar    1  UNL1        0.0585
     16 CL        136.8743  138.0567  167.6312 Cl      1  UNL1       -0.0822
     17 C         138.4157  138.3227  165.5567 C.ar    1  UNL1        0.0228
     18 C         139.6225  138.9293  164.9043 C.ar    1  UNL1        0.0585
     19 CL        139.9572  138.5887  163.4824 Cl      1  UNL1       -0.0822
     20 C         143.0982  138.3863  165.6552 C.3     1  UNL1        0.0934
     21 N         143.6196  138.2571  167.0556 N.3     1  UNL1       -0.3174
     22 H         144.6031  138.5264  167.0784 H       1  UNL1        0.1192
     23 H         143.5247  137.2900  167.3659 H       1  UNL1        0.1192
     24 C         140.1623  145.2122  163.1232 C.3     1  UNL1        0.2045
     25 C         139.4708  145.2790  161.7938 C.2     1  UNL1        0.3377
     26 O         139.1473  146.6102  161.1827 O.2     1  UNL1       -0.2482
     27 C         140.0944  143.3536  160.1648 C.3     1  UNL1        0.2557
     28 O         139.1026  144.0147  161.0754 O.3     1  UNL1       -0.4432
@<TRIPOS>BOND
     1    27    28    1
     2    28    25    1
     3    25    26    2
     4    25    24    1
     5    24     1    1
     6     1     2    1
     7     2     3    1
     8     3     4   ar
     9     4     5   ar
    10     5     6   ar
    11     6     7    1
    12     6     8   ar
    13     8    20    1
    14    20    21    1
    15     8     9   ar
    16     9    12    1
    17    12    13   ar
    18    13    14   ar
    19    14    15   ar
    20    15    16    1
    21    15    17   ar
    22    17    18   ar
    23    18    19    1
    24     4    10    1
    25    10    11    2
    26    10     1   am
    27     9     3   ar
    28    18    12   ar
    29    21    22    1
    30    21    23    1
@<TRIPOS>MOLECULE
*****
 28 30 0 0 0
SMALL
GASTEIGER

@<TRIPOS>ATOM
      1 N         142.5878  141.6495  168.0465 N.am    1  UNL1       -0.2607
      2 C         142.0365  142.2785  166.8013 C.3     1  UNL1        0.1227
      3 C         141.6952  141.1798  165.8389 C.ar    1  UNL1        0.0196
      4 C         142.0356  139.8716  166.4892 C.ar    1  UNL1        0.1319
      5 N         141.7993  138.5851  165.7551 N.ar    1  UNL1       -0.2456
      6 C         141.2226  138.6067  164.3705 C.ar    1  UNL1        0.0568
      7 C         140.9862  137.3202  163.6363 C.3     1  UNL1        0.0518
      8 C         140.8821  139.9148  163.7202 C.ar    1  UNL1        0.0068
      9 C         141.1185  141.2014  164.4544 C.ar    1  UNL1       -0.0015
     10 C         142.5873  140.1620  167.8536 C.2     1  UNL1        0.2671
     11 O         143.0561  139.1435  168.8501 O.2     1  UNL1       -0.2682
     12 C         140.7781  142.5095  163.8041 C.ar    1  UNL1        0.0102
     13 C         141.8111  143.2360  162.9947 C.ar    1  UNL1        0.0017
     14 C         141.4707  144.5441  162.3444 C.ar    1  UNL1        0.0114
     15 C         140.0973  145.1258  162.5034 C.ar    1  UNL1        0.0585
     16 CL        139.7568  146.4339  161.8531 Cl      1  UNL1       -0.0822
     17 C         139.0642  144.3993  163.3128 C.ar    1  UNL1        0.0228
     18 C         139.4046  143.0912  163.9631 C.ar    1  UNL1        0.0585
     19 CL        138.3715  142.3647  164.7725 Cl      1  UNL1       -0.0822
     20 C         140.3054  139.9365  162.3357 C.3     1  UNL1        0.0934
     21 N         138.8187  139.8906  162.1418 N.3     1  UNL1       -0.3174
     22 H         138.4618  138.9901  162.4613 H       1  UNL1        0.1192
     23 H         138.6010  140.0110  161.1526 H       1  UNL1        0.1192
     24 C         143.0572  142.3798  169.2697 C.3     1  UNL1        0.2045
     25 C         142.0840  142.7220  170.3586 C.2     1  UNL1        0.3377
     26 O         141.4183  144.0661  170.3744 O.2     1  UNL1       -0.2482
     27 C         140.7458  140.6569  171.1921 C.3     1  UNL1        0.2557
     28 O         141.7765  141.7201  171.4317 O.3     1  UNL1       -0.4432
@<TRIPOS>BOND
     1    27    28    1
     2    28    25    1
     3    25    26    2
     4    25    24    1
     5    24     1    1
     6     1     2    1
     7     2     3    1
     8     3     4   ar
     9     4     5   ar
    10     5     6   ar
    11     6     7    1
    12     6     8   ar
    13     8    20    1
    14    20    21    1
    15     8     9   ar
    16     9    12    1
    17    12    13   ar
    18    13    14   ar
    19    14    15   ar
    20    15    16    1
    21    15    17   ar
    22    17    18   ar
    23    18    19    1
    24     4    10    1
    25    10    11    2
    26    10     1   am
    27     9     3   ar
    28    18    12   ar
    29    21    22    1
    30    21    23    1
@<TRIPOS>MOLECULE
*****
 28 30 0 0 0
SMALL
GASTEIGER

@<TRIPOS>ATOM
      1 N         143.9650  143.2151  164.3413 N.am    1  UNL1       -0.2607
      2 C         142.9339  142.1273  164.3990 C.3     1  UNL1        0.1227
      3 C         142.7026  141.7838  165.8407 C.ar    1  UNL1        0.0196
      4 C         143.5909  142.6593  166.6741 C.ar    1  UNL1        0.1319
      5 N         143.5746  142.5380  168.1690 N.ar    1  UNL1       -0.2456
      6 C         142.6699  141.5410  168.8307 C.ar    1  UNL1        0.0568
      7 C         142.6536  141.4196  170.3257 C.3     1  UNL1        0.0518
      8 C         141.7817  140.6655  167.9974 C.ar    1  UNL1        0.0068
      9 C         141.7980  140.7869  166.5024 C.ar    1  UNL1       -0.0015
     10 C         144.3711  143.5439  165.7473 C.2     1  UNL1        0.2671
     11 O         145.3802  144.5761  166.1551 O.2     1  UNL1       -0.2682
     12 C         140.9098  139.9113  165.6691 C.ar    1  UNL1        0.0102
     13 C         139.5259  140.3682  165.3141 C.ar    1  UNL1        0.0017
     14 C         138.6376  139.4927  164.4808 C.ar    1  UNL1        0.0114
     15 C         139.1333  138.1602  164.0024 C.ar    1  UNL1        0.0585
     16 CL        138.2450  137.2847  163.1691 Cl      1  UNL1       -0.0822
     17 C         140.5173  137.7033  164.3574 C.ar    1  UNL1        0.0228
     18 C         141.4055  138.5788  165.1907 C.ar    1  UNL1        0.0585
     19 CL        142.7894  138.1219  165.5456 Cl      1  UNL1       -0.0822
     20 C         140.8771  139.6685  168.6591 C.3     1  UNL1        0.0934
     21 N         139.4772  140.0577  169.0317 N.3     1  UNL1       -0.3174
     22 H         139.5052  140.7720  169.7593 H       1  UNL1        0.1192
     23 H         138.9775  139.2388  169.3783 H       1  UNL1        0.1192
     24 C         144.4967  143.8608  163.0961 C.3     1  UNL1        0.2045
     25 C         144.1772  143.2754  161.7526 C.2     1  UNL1        0.3377
     26 O         144.8284  141.9959  161.3178 O.2     1  UNL1       -0.2482
     27 C         141.7390  143.9444  161.1543 C.3     1  UNL1        0.2557
     28 O         143.2064  143.9693  160.8438 O.3     1  UNL1       -0.4432
@<TRIPOS>BOND
     1    27    28    1
     2    28    25    1
     3    25    26    2
     4    25    24    1
     5    24     1    1
     6     1     2    1
     7     2     3    1
     8     3     4   ar
     9     4     5   ar
    10     5     6   ar
    11     6     7    1
    12     6     8   ar
    13     8    20    1
    14    20    21    1
    15     8     9   ar
    16     9    12    1
    17    12    13   ar
    18    13    14   ar
    19    14    15   ar
    20    15    16    1
    21    15    17   ar
    22    17    18   ar
    23    18    19    1
    24     4    10    1
    25    10    11    2
    26    10     1   am
    27     9     3   ar
    28    18    12   ar
    29    21    22    1
    30    21    23    1
@<TRIPOS>MOLECULE
*****
 28 30 0 0 0
SMALL
GASTEIGER

@<TRIPOS>ATOM
      1 N         141.2843  144.1308  163.2011 N.am    1  UNL1       -0.2607
      2 C         140.9824  143.2324  164.3637 C.3     1  UNL1        0.1227
      3 C         141.7884  141.9777  164.2016 C.ar    1  UNL1        0.0196
      4 C         142.5884  142.1007  162.9388 C.ar    1  UNL1        0.1319
      5 N         143.4973  140.9852  162.5151 N.ar    1  UNL1       -0.2456
      6 C         143.6060  139.7466  163.3542 C.ar    1  UNL1        0.0568
      7 C         144.5149  138.6310  162.9305 C.3     1  UNL1        0.0518
      8 C         142.8060  139.6236  164.6170 C.ar    1  UNL1        0.0068
      9 C         141.8971  140.7392  165.0407 C.ar    1  UNL1       -0.0015
     10 C         142.2769  143.4314  162.3204 C.2     1  UNL1        0.2671
     11 O         142.8563  143.9683  161.0453 O.2     1  UNL1       -0.2682
     12 C         141.0970  140.6162  166.3036 C.ar    1  UNL1        0.0102
     13 C         139.7954  139.8709  166.2972 C.ar    1  UNL1        0.0017
     14 C         138.9953  139.7479  167.5600 C.ar    1  UNL1        0.0114
     15 C         139.4969  140.3702  168.8292 C.ar    1  UNL1        0.0585
     16 CL        138.6968  140.2472  170.0921 Cl      1  UNL1       -0.0822
     17 C         140.7986  141.1156  168.8357 C.ar    1  UNL1        0.0228
     18 C         141.5987  141.2386  167.5729 C.ar    1  UNL1        0.0585
     19 CL        142.9004  141.9839  167.5793 Cl      1  UNL1       -0.0822
     20 C         142.9147  138.3851  165.4562 C.3     1  UNL1        0.0934
     21 N         143.9258  138.3148  166.5619 N.3     1  UNL1       -0.3174
     22 H         144.8653  138.3353  166.1654 H       1  UNL1        0.1192
     23 H         143.7968  137.4493  167.0860 H       1  UNL1        0.1192
     24 C         140.6968  145.4899  162.9612 C.3     1  UNL1        0.2045
     25 C         139.5119  145.6455  162.0547 C.2     1  UNL1        0.3377
     26 O         139.3686  146.8785  161.2126 O.2     1  UNL1       -0.2482
     27 C         137.6752  144.2194  163.2136 C.3     1  UNL1        0.2557
     28 O         138.4703  144.5681  161.9903 O.3     1  UNL1       -0.4432
@<TRIPOS>BOND
     1    27    28    1
     2    28    25    1
     3    25    26    2
     4    25    24    1
     5    24     1    1
     6     1     2    1
     7     2     3    1
     8     3     4   ar
     9     4     5   ar
    10     5     6   ar
    11     6     7    1
    12     6     8   ar
    13     8    20    1
    14    20    21    1
    15     8     9   ar
    16     9    12    1
    17    12    13   ar
    18    13    14   ar
    19    14    15   ar
    20    15    16    1
    21    15    17   ar
    22    17    18   ar
    23    18    19    1
    24     4    10    1
    25    10    11    2
    26    10     1   am
    27     9     3   ar
    28    18    12   ar
    29    21    22    1
    30    21    23    1
@<TRIPOS>MOLECULE
*****
 28 30 0 0 0
SMALL
GASTEIGER

@<TRIPOS>ATOM
      1 N         139.0514  143.5461  163.5041 N.am    1  UNL1       -0.2607
      2 C         139.6332  142.6633  164.5681 C.3     1  UNL1        0.1227
      3 C         139.3568  141.2382  164.1903 C.ar    1  UNL1        0.0196
      4 C         138.6041  141.2403  162.8928 C.ar    1  UNL1        0.1319
      5 N         138.1878  139.9431  162.2652 N.ar    1  UNL1       -0.2456
      6 C         138.5242  138.6437  162.9350 C.ar    1  UNL1        0.0568
      7 C         138.1080  137.3466  162.3074 C.3     1  UNL1        0.0518
      8 C         139.2769  138.6417  164.2325 C.ar    1  UNL1        0.0068
      9 C         139.6931  139.9390  164.8602 C.ar    1  UNL1       -0.0015
     10 C         138.4154  142.6666  162.4687 C.2     1  UNL1        0.2671
     11 O         137.7138  143.1318  161.2272 O.2     1  UNL1       -0.2682
     12 C         140.4458  139.9369  166.1577 C.ar    1  UNL1        0.0102
     13 C         139.7023  140.0428  167.4561 C.ar    1  UNL1        0.0017
     14 C         140.4550  140.0407  168.7536 C.ar    1  UNL1        0.0114
     15 C         141.9511  139.9328  168.7527 C.ar    1  UNL1        0.0585
     16 CL        142.7037  139.9307  170.0502 Cl      1  UNL1       -0.0822
     17 C         142.6946  139.8269  167.4542 C.ar    1  UNL1        0.0228
     18 C         141.9419  139.8290  166.1567 C.ar    1  UNL1        0.0585
     19 CL        142.6854  139.7231  164.8582 Cl      1  UNL1       -0.0822
     20 C         139.6132  137.3424  164.9024 C.3     1  UNL1        0.0934
     21 N         140.9023  136.6454  164.5825 N.3     1  UNL1       -0.3174
     22 H         140.8904  136.3380  163.6100 H       1  UNL1        0.1192
     23 H         141.0120  135.8361  165.1935 H       1  UNL1        0.1192
     24 C         139.0975  145.0452  163.4797 C.3     1  UNL1        0.2045
     25 C         139.9126  145.7537  162.4387 C.2     1  UNL1        0.3377
     26 O         139.2320  146.5748  161.3839 O.2     1  UNL1       -0.2482
     27 C         142.1278  145.3638  163.7392 C.3     1  UNL1        0.2557
     28 O         141.4083  145.6411  162.4524 O.3     1  UNL1       -0.4432
@<TRIPOS>BOND
     1    27    28    1
     2    28    25    1
     3    25    26    2
     4    25    24    1
     5    24     1    1
     6     1     2    1
     7     2     3    1
     8     3     4   ar
     9     4     5   ar
    10     5     6   ar
    11     6     7    1
    12     6     8   ar
    13     8    20    1
    14    20    21    1
    15     8     9   ar
    16     9    12    1
    17    12    13   ar
    18    13    14   ar
    19    14    15   ar
    20    15    16    1
    21    15    17   ar
    22    17    18   ar
    23    18    19    1
    24     4    10    1
    25    10    11    2
    26    10     1   am
    27     9     3   ar
    28    18    12   ar
    29    21    22    1
    30    21    23    1
@<TRIPOS>MOLECULE
*****
 28 30 0 0 0
SMALL
GASTEIGER

@<TRIPOS>ATOM
      1 N         141.7062  140.2983  168.6061 N.am    1  UNL1       -0.2607
      2 C         141.1119  140.0432  167.2527 C.3     1  UNL1        0.1227
      3 C         141.7840  140.9573  166.2715 C.ar    1  UNL1        0.0196
      4 C         142.7937  141.7774  167.0185 C.ar    1  UNL1        0.1319
      5 N         143.6265  142.7890  166.2884 N.ar    1  UNL1       -0.2456
      6 C         143.4496  142.9806  164.8112 C.ar    1  UNL1        0.0568
      7 C         144.2823  143.9922  164.0811 C.3     1  UNL1        0.0518
      8 C         142.4399  142.1605  164.0642 C.ar    1  UNL1        0.0068
      9 C         141.6071  141.1489  164.7944 C.ar    1  UNL1       -0.0015
     10 C         142.7456  141.3701  168.4614 C.2     1  UNL1        0.2671
     11 O         143.5889  141.9353  169.5656 O.2     1  UNL1       -0.2682
     12 C         140.5974  140.3288  164.0474 C.ar    1  UNL1        0.0102
     13 C         139.1893  140.8245  163.9005 C.ar    1  UNL1        0.0017
     14 C         138.1796  140.0045  163.1535 C.ar    1  UNL1        0.0114
     15 C         138.5780  138.6888  162.5534 C.ar    1  UNL1        0.0585
     16 CL        137.5683  137.8687  161.8064 Cl      1  UNL1       -0.0822
     17 C         139.9861  138.1930  162.7003 C.ar    1  UNL1        0.0228
     18 C         140.9958  139.0130  163.4473 C.ar    1  UNL1        0.0585
     19 CL        142.4038  138.5174  163.5942 Cl      1  UNL1       -0.0822
     20 C         142.2629  142.3521  162.5871 C.3     1  UNL1        0.0934
     21 N         143.0820  141.5463  161.6229 N.3     1  UNL1       -0.3174
     22 H         144.0645  141.8053  161.7121 H       1  UNL1        0.1192
     23 H         142.7665  141.7319  160.6708 H       1  UNL1        0.1192
     24 C         141.3276  139.6036  169.8805 C.3     1  UNL1        0.2045
     25 C         140.2513  140.1752  170.7551 C.2     1  UNL1        0.3377
     26 O         139.0105  139.3799  171.0343 O.2     1  UNL1       -0.2482
     27 C         139.9194  142.7479  170.6092 C.3     1  UNL1        0.2557
     28 O         140.4159  141.5421  171.3506 O.3     1  UNL1       -0.4432
@<TRIPOS>BOND
     1    27    28    1
     2    28    25    1
     3    25    26    2
     4    25    24    1
     5    24     1    1
     6     1     2    1
     7     2     3    1
     8     3     4   ar
     9     4     5   ar
    10     5     6   ar
    11     6     7    1
    12     6     8   ar
    13     8    20    1
    14    20    21    1
    15     8     9   ar
    16     9    12    1
    17    12    13   ar
    18    13    14   ar
    19    14    15   ar
    20    15    16    1
    21    15    17   ar
    22    17    18   ar
    23    18    19    1
    24     4    10    1
    25    10    11    2
    26    10     1   am
    27     9     3   ar
    28    18    12   ar
    29    21    22    1
    30    21    23    1
