@<TRIPOS>MOLECULE
*****
 31 33 0 0 0
SMALL
GASTEIGER

@<TRIPOS>ATOM
      1 O         143.0897  139.0411  166.3283 O.2     1  UNL1       -0.2732
      2 C         141.8418  138.9726  165.4988 C.2     1  UNL1        0.2430
      3 N         140.9204  140.1543  165.4313 N.am    1  UNL1       -0.2972
      4 H         140.1013  140.1094  164.8868 H       1  UNL1        0.1500
      5 C         141.5154  137.7226  164.7368 C.3     1  UNL1        0.1759
      6 N         141.7246  137.6729  163.2522 N.am    1  UNL1       -0.2931
      7 C         140.7497  138.3491  162.3344 C.2     1  UNL1        0.2462
      8 O         139.5656  139.0749  162.9011 O.2     1  UNL1       -0.2701
      9 H         142.5017  137.1965  162.8803 H       1  UNL1        0.1502
     10 C         140.9589  138.2994  160.8499 C.ar    1  UNL1        0.0535
     11 C         139.8023  138.5237  159.9216 C.ar    1  UNL1        0.0068
     12 C         140.0115  138.4740  158.4371 C.ar    1  UNL1        0.0298
     13 C         141.3774  138.2001  157.8809 C.ar    1  UNL1        0.1401
     14 F         141.5866  138.1504  156.3964 F       1  UNL1       -0.2042
     15 C         142.5340  137.9758  158.8092 C.ar    1  UNL1        0.0298
     16 C         142.3248  138.0255  160.2937 C.ar    1  UNL1        0.0068
     17 C         141.2468  141.4045  166.1933 C.3     1  UNL1        0.1171
     18 C         142.1258  142.4513  165.5757 C.ar    1  UNL1        0.0019
     19 C         143.5884  142.4926  165.9060 C.ar    1  UNL1       -0.0022
     20 C         144.4674  143.5395  165.2884 C.ar    1  UNL1        0.0020
     21 C         143.8839  144.5450  164.3406 C.ar    1  UNL1        0.0296
     22 C         142.4212  144.5036  164.0103 C.ar    1  UNL1        0.1399
     23 F         141.8376  145.5091  163.0625 F       1  UNL1       -0.2042
     24 C         141.5422  143.4568  164.6279 C.ar    1  UNL1        0.0273
     25 C         140.6941  141.6077  167.5729 C.ar    1  UNL1        0.0019
     26 C         140.0656  140.4596  168.3057 C.ar    1  UNL1       -0.0022
     27 C         139.5130  140.6629  169.6853 C.ar    1  UNL1        0.0020
     28 C         139.5889  142.0142  170.3321 C.ar    1  UNL1        0.0296
     29 C         140.2174  143.1622  169.5993 C.ar    1  UNL1        0.1399
     30 F         140.2933  144.5134  170.2461 F       1  UNL1       -0.2042
     31 C         140.7700  142.9589  168.2197 C.ar    1  UNL1        0.0273
@<TRIPOS>BOND
     1     1     2    2
     2     2     5    1
     3     5     6    1
     4     6     7   am
     5     7     8    2
     6     7    10    1
     7    10    11   ar
     8    11    12   ar
     9    12    13   ar
    10    13    14    1
    11    13    15   ar
    12    15    16   ar
    13     2     3   am
    14     3    17    1
    15    17    18    1
    16    18    19   ar
    17    19    20   ar
    18    20    21   ar
    19    21    22   ar
    20    22    23    1
    21    22    24   ar
    22    17    25    1
    23    25    26   ar
    24    26    27   ar
    25    27    28   ar
    26    28    29   ar
    27    29    30    1
    28    29    31   ar
    29    16    10   ar
    30    24    18   ar
    31    31    25   ar
    32     6     9    1
    33     3     4    1
@<TRIPOS>MOLECULE
*****
 31 33 0 0 0
SMALL
GASTEIGER

@<TRIPOS>ATOM
      1 O         143.2667  139.1179  166.2530 O.2     1  UNL1       -0.2732
      2 C         141.9852  138.9826  165.4852 C.2     1  UNL1        0.2430
      3 N         141.0033  140.1163  165.4589 N.am    1  UNL1       -0.2972
      4 H         140.1623  140.0275  164.9550 H       1  UNL1        0.1500
      5 C         141.6855  137.7137  164.7437 C.3     1  UNL1        0.1759
      6 N         141.2857  137.7658  163.2989 N.am    1  UNL1       -0.2931
      7 C         142.3092  138.0804  162.2484 C.2     1  UNL1        0.2462
      8 O         143.7324  138.3428  162.6426 O.2     1  UNL1       -0.2701
      9 H         140.3516  137.5935  163.0401 H       1  UNL1        0.1502
     10 C         141.9093  138.1325  160.8035 C.ar    1  UNL1        0.0535
     11 C         140.5170  138.5423  160.4249 C.ar    1  UNL1        0.0068
     12 C         140.1173  138.5944  158.9801 C.ar    1  UNL1        0.0298
     13 C         141.1099  138.2367  157.9139 C.ar    1  UNL1        0.1401
     14 F         140.7100  138.2888  156.4691 F       1  UNL1       -0.2042
     15 C         142.5022  137.8269  158.2925 C.ar    1  UNL1        0.0298
     16 C         142.9020  137.7748  159.7373 C.ar    1  UNL1        0.0068
     17 C         141.3030  141.3854  166.2005 C.3     1  UNL1        0.1171
     18 C         140.7395  141.6026  167.5735 C.ar    1  UNL1        0.0019
     19 C         140.1068  140.4617  168.3137 C.ar    1  UNL1       -0.0022
     20 C         139.5433  140.6789  169.6868 C.ar    1  UNL1        0.0020
     21 C         139.6125  142.0371  170.3196 C.ar    1  UNL1        0.0296
     22 C         140.2453  143.1781  169.5794 C.ar    1  UNL1        0.1399
     23 F         140.3145  144.5363  170.2123 F       1  UNL1       -0.2042
     24 C         140.8087  142.9608  168.2064 C.ar    1  UNL1        0.0273
     25 C         142.1661  142.4371  165.5689 C.ar    1  UNL1        0.0019
     26 C         143.6351  142.4815  165.8691 C.ar    1  UNL1       -0.0022
     27 C         144.4982  143.5332  165.2375 C.ar    1  UNL1        0.0020
     28 C         143.8922  144.5406  164.3057 C.ar    1  UNL1        0.0296
     29 C         142.4233  144.4962  164.0056 C.ar    1  UNL1        0.1399
     30 F         141.8174  145.5036  163.0739 F       1  UNL1       -0.2042
     31 C         141.5602  143.4445  164.6372 C.ar    1  UNL1        0.0273
@<TRIPOS>BOND
     1     1     2    2
     2     2     5    1
     3     5     6    1
     4     6     7   am
     5     7     8    2
     6     7    10    1
     7    10    11   ar
     8    11    12   ar
     9    12    13   ar
    10    13    14    1
    11    13    15   ar
    12    15    16   ar
    13     2     3   am
    14     3    17    1
    15    17    18    1
    16    18    19   ar
    17    19    20   ar
    18    20    21   ar
    19    21    22   ar
    20    22    23    1
    21    22    24   ar
    22    17    25    1
    23    25    26   ar
    24    26    27   ar
    25    27    28   ar
    26    28    29   ar
    27    29    30    1
    28    29    31   ar
    29    16    10   ar
    30    24    18   ar
    31    31    25   ar
    32     6     9    1
    33     3     4    1
@<TRIPOS>MOLECULE
*****
 31 33 0 0 0
SMALL
GASTEIGER

@<TRIPOS>ATOM
      1 O         144.3338  142.9913  165.0330 O.2     1  UNL1       -0.2732
      2 C         144.2290  141.6191  164.4362 C.2     1  UNL1        0.2430
      3 N         143.1389  140.6894  164.8804 N.am    1  UNL1       -0.2972
      4 H         143.0700  139.7888  164.4887 H       1  UNL1        0.1500
      5 C         145.2142  141.1766  163.3954 C.3     1  UNL1        0.1759
      6 N         144.7543  140.9094  161.9928 N.am    1  UNL1       -0.2931
      7 C         144.1105  139.5984  161.6515 C.2     1  UNL1        0.2462
      8 O         143.9265  138.5544  162.7128 O.2     1  UNL1       -0.2701
      9 H         144.8751  141.5946  161.2962 H       1  UNL1        0.1502
     10 C         143.6506  139.3312  160.2489 C.ar    1  UNL1        0.0535
     11 C         143.0592  137.9991  159.8944 C.ar    1  UNL1        0.0068
     12 C         142.5994  137.7320  158.4919 C.ar    1  UNL1        0.0298
     13 C         142.7309  138.7970  157.4438 C.ar    1  UNL1        0.1401
     14 F         142.2710  138.5299  156.0412 F       1  UNL1       -0.2042
     15 C         143.3223  140.1291  157.7983 C.ar    1  UNL1        0.0298
     16 C         143.7821  140.3962  159.2008 C.ar    1  UNL1        0.0068
     17 C         142.1535  141.1319  165.9213 C.3     1  UNL1        0.1171
     18 C         142.4856  140.9892  167.3770 C.ar    1  UNL1        0.0019
     19 C         142.9897  142.1713  168.1506 C.ar    1  UNL1       -0.0022
     20 C         143.3218  142.0287  169.6065 C.ar    1  UNL1        0.0020
     21 C         143.1498  140.7040  170.2887 C.ar    1  UNL1        0.0296
     22 C         142.6457  139.5218  169.5150 C.ar    1  UNL1        0.1399
     23 F         142.4737  138.1970  170.1972 F       1  UNL1       -0.2042
     24 C         142.3136  139.6644  168.0593 C.ar    1  UNL1        0.0273
     25 C         140.8362  141.7170  165.5063 C.ar    1  UNL1        0.0019
     26 C         139.7191  140.8156  165.0705 C.ar    1  UNL1       -0.0022
     27 C         138.4018  141.4007  164.6555 C.ar    1  UNL1        0.0020
     28 C         138.2014  142.8872  164.6764 C.ar    1  UNL1        0.0296
     29 C         139.3184  143.7884  165.1123 C.ar    1  UNL1        0.1399
     30 F         139.1180  145.2748  165.1332 F       1  UNL1       -0.2042
     31 C         140.6358  143.2033  165.5272 C.ar    1  UNL1        0.0273
@<TRIPOS>BOND
     1     1     2    2
     2     2     5    1
     3     5     6    1
     4     6     7   am
     5     7     8    2
     6     7    10    1
     7    10    11   ar
     8    11    12   ar
     9    12    13   ar
    10    13    14    1
    11    13    15   ar
    12    15    16   ar
    13     2     3   am
    14     3    17    1
    15    17    18    1
    16    18    19   ar
    17    19    20   ar
    18    20    21   ar
    19    21    22   ar
    20    22    23    1
    21    22    24   ar
    22    17    25    1
    23    25    26   ar
    24    26    27   ar
    25    27    28   ar
    26    28    29   ar
    27    29    30    1
    28    29    31   ar
    29    16    10   ar
    30    24    18   ar
    31    31    25   ar
    32     6     9    1
    33     3     4    1
@<TRIPOS>MOLECULE
*****
 31 33 0 0 0
SMALL
GASTEIGER

@<TRIPOS>ATOM
      1 O         139.4913  144.2517  165.2808 O.2     1  UNL1       -0.2732
      2 C         140.7835  144.0167  164.5562 C.2     1  UNL1        0.2430
      3 N         141.6713  142.8759  164.9567 N.am    1  UNL1       -0.2972
      4 H         142.5194  142.7217  164.4812 H       1  UNL1        0.1500
      5 C         141.1880  144.9225  163.4311 C.3     1  UNL1        0.1759
      6 N         141.0405  144.4653  162.0101 N.am    1  UNL1       -0.2931
      7 C         140.3024  145.3176  161.0208 C.2     1  UNL1        0.2462
      8 O         139.7118  146.6272  161.4524 O.2     1  UNL1       -0.2701
      9 H         141.4281  143.6058  161.7267 H       1  UNL1        0.1502
     10 C         140.1549  144.8604  159.5997 C.ar    1  UNL1        0.0535
     11 C         139.5667  143.5130  159.3026 C.ar    1  UNL1        0.0068
     12 C         139.4192  143.0558  157.8816 C.ar    1  UNL1        0.0298
     13 C         139.8599  143.9462  156.7578 C.ar    1  UNL1        0.1401
     14 F         139.7124  143.4890  155.3367 F       1  UNL1       -0.2042
     15 C         140.4480  145.2937  157.0549 C.ar    1  UNL1        0.0298
     16 C         140.5955  145.7508  158.4758 C.ar    1  UNL1        0.0068
     17 C         141.2669  141.9701  166.0819 C.3     1  UNL1        0.1171
     18 C         141.5854  142.3457  167.4987 C.ar    1  UNL1        0.0019
     19 C         140.5205  142.9343  168.3760 C.ar    1  UNL1       -0.0022
     20 C         140.8390  143.3100  169.7929 C.ar    1  UNL1        0.0020
     21 C         142.2223  143.0971  170.3324 C.ar    1  UNL1        0.0296
     22 C         143.2872  142.5085  169.4551 C.ar    1  UNL1        0.1399
     23 F         144.6705  142.2956  169.9946 F       1  UNL1       -0.2042
     24 C         142.9687  142.1328  168.0383 C.ar    1  UNL1        0.0273
     25 C         140.5440  140.6885  165.7902 C.ar    1  UNL1        0.0019
     26 C         139.0472  140.6362  165.8726 C.ar    1  UNL1       -0.0022
     27 C         138.3243  139.3547  165.5808 C.ar    1  UNL1        0.0020
     28 C         139.0983  138.1254  165.2067 C.ar    1  UNL1        0.0296
     29 C         140.5951  138.1778  165.1243 C.ar    1  UNL1        0.1399
     30 F         141.3690  136.9485  164.7501 F       1  UNL1       -0.2042
     31 C         141.3180  139.4593  165.4160 C.ar    1  UNL1        0.0273
@<TRIPOS>BOND
     1     1     2    2
     2     2     5    1
     3     5     6    1
     4     6     7   am
     5     7     8    2
     6     7    10    1
     7    10    11   ar
     8    11    12   ar
     9    12    13   ar
    10    13    14    1
    11    13    15   ar
    12    15    16   ar
    13     2     3   am
    14     3    17    1
    15    17    18    1
    16    18    19   ar
    17    19    20   ar
    18    20    21   ar
    19    21    22   ar
    20    22    23    1
    21    22    24   ar
    22    17    25    1
    23    25    26   ar
    24    26    27   ar
    25    27    28   ar
    26    28    29   ar
    27    29    30    1
    28    29    31   ar
    29    16    10   ar
    30    24    18   ar
    31    31    25   ar
    32     6     9    1
    33     3     4    1
@<TRIPOS>MOLECULE
*****
 31 33 0 0 0
SMALL
GASTEIGER

@<TRIPOS>ATOM
      1 O         144.4883  143.2067  164.8153 O.2     1  UNL1       -0.2732
      2 C         143.2276  143.7257  164.1897 C.2     1  UNL1        0.2430
      3 N         141.9031  143.1318  164.5677 N.am    1  UNL1       -0.2972
      4 H         141.0757  143.4725  164.1571 H       1  UNL1        0.1500
      5 C         143.2915  144.8387  163.1862 C.3     1  UNL1        0.1759
      6 N         142.7670  144.6269  161.7969 N.am    1  UNL1       -0.2931
      7 C         141.3069  144.8152  161.5095 C.2     1  UNL1        0.2462
      8 O         140.3712  145.2153  162.6115 O.2     1  UNL1       -0.2701
      9 H         143.3812  144.3643  161.0736 H       1  UNL1        0.1502
     10 C         140.7825  144.6034  160.1202 C.ar    1  UNL1        0.0535
     11 C         141.2015  145.5233  159.0120 C.ar    1  UNL1        0.0068
     12 C         140.6770  145.3115  157.6228 C.ar    1  UNL1        0.0298
     13 C         139.7336  144.1797  157.3417 C.ar    1  UNL1        0.1401
     14 F         139.2092  143.9679  155.9524 F       1  UNL1       -0.2042
     15 C         139.3146  143.2597  158.4499 C.ar    1  UNL1        0.0298
     16 C         139.8391  143.4716  159.8391 C.ar    1  UNL1        0.0068
     17 C         141.8393  142.0188  165.5713 C.3     1  UNL1        0.1171
     18 C         141.7560  140.5947  165.1076 C.ar    1  UNL1        0.0019
     19 C         142.8668  140.0063  164.2892 C.ar    1  UNL1       -0.0022
     20 C         142.7836  138.5822  163.8254 C.ar    1  UNL1        0.0020
     21 C         141.5896  137.7465  164.1802 C.ar    1  UNL1        0.0296
     22 C         140.4787  138.3349  164.9987 C.ar    1  UNL1        0.1399
     23 F         139.2847  137.4992  165.3535 F       1  UNL1       -0.2042
     24 C         140.5620  139.7590  165.4624 C.ar    1  UNL1        0.0273
     25 C         141.8586  142.3299  167.0385 C.ar    1  UNL1        0.0019
     26 C         140.6041  142.7810  167.7262 C.ar    1  UNL1       -0.0022
     27 C         140.6235  143.0921  169.1934 C.ar    1  UNL1        0.0020
     28 C         141.8973  142.9521  169.9731 C.ar    1  UNL1        0.0296
     29 C         143.1518  142.5010  169.2854 C.ar    1  UNL1        0.1399
     30 F         144.4255  142.3610  170.0650 F       1  UNL1       -0.2042
     31 C         143.1324  142.1899  167.8182 C.ar    1  UNL1        0.0273
@<TRIPOS>BOND
     1     1     2    2
     2     2     5    1
     3     5     6    1
     4     6     7   am
     5     7     8    2
     6     7    10    1
     7    10    11   ar
     8    11    12   ar
     9    12    13   ar
    10    13    14    1
    11    13    15   ar
    12    15    16   ar
    13     2     3   am
    14     3    17    1
    15    17    18    1
    16    18    19   ar
    17    19    20   ar
    18    20    21   ar
    19    21    22   ar
    20    22    23    1
    21    22    24   ar
    22    17    25    1
    23    25    26   ar
    24    26    27   ar
    25    27    28   ar
    26    28    29   ar
    27    29    30    1
    28    29    31   ar
    29    16    10   ar
    30    24    18   ar
    31    31    25   ar
    32     6     9    1
    33     3     4    1
@<TRIPOS>MOLECULE
*****
 31 33 0 0 0
SMALL
GASTEIGER

@<TRIPOS>ATOM
      1 O         139.9763  144.2862  164.8129 O.2     1  UNL1       -0.2732
      2 C         141.3192  143.8972  164.2696 C.2     1  UNL1        0.2430
      3 N         142.0444  142.7139  164.8386 N.am    1  UNL1       -0.2972
      4 H         142.9258  142.4586  164.4821 H       1  UNL1        0.1500
      5 C         141.9370  144.6915  163.1572 C.3     1  UNL1        0.1759
      6 N         141.6140  144.3607  161.7302 N.am    1  UNL1       -0.2931
      7 C         140.5287  145.1086  161.0142 C.2     1  UNL1        0.2462
      8 O         139.7663  146.1872  161.7251 O.2     1  UNL1       -0.2701
      9 H         142.1143  143.6528  161.2636 H       1  UNL1        0.1502
     10 C         140.2056  144.7778  159.5872 C.ar    1  UNL1        0.0535
     11 C         140.5759  145.7348  158.4931 C.ar    1  UNL1        0.0068
     12 C         140.2528  145.4040  157.0662 C.ar    1  UNL1        0.0298
     13 C         139.5595  144.1162  156.7333 C.ar    1  UNL1        0.1401
     14 F         139.2365  143.7854  155.3063 F       1  UNL1       -0.2042
     15 C         139.1893  143.1591  157.8273 C.ar    1  UNL1        0.0298
     16 C         139.5123  143.4899  159.2543 C.ar    1  UNL1        0.0068
     17 C         141.4266  141.9195  165.9511 C.3     1  UNL1        0.1171
     18 C         140.5650  140.7326  165.6364 C.ar    1  UNL1        0.0019
     19 C         139.0765  140.8908  165.5404 C.ar    1  UNL1       -0.0022
     20 C         138.2149  139.7039  165.2258 C.ar    1  UNL1        0.0020
     21 C         138.8418  138.3589  165.0070 C.ar    1  UNL1        0.0296
     22 C         140.3304  138.2008  165.1030 C.ar    1  UNL1        0.1399
     23 F         140.9574  136.8557  164.8842 F       1  UNL1       -0.2042
     24 C         141.1920  139.3876  165.4176 C.ar    1  UNL1        0.0273
     25 C         141.6704  142.3120  167.3781 C.ar    1  UNL1        0.0019
     26 C         140.5545  142.8880  168.1986 C.ar    1  UNL1       -0.0022
     27 C         140.7984  143.2806  169.6257 C.ar    1  UNL1        0.0020
     28 C         142.1580  143.0971  170.2322 C.ar    1  UNL1        0.0296
     29 C         143.2738  142.5211  169.4117 C.ar    1  UNL1        0.1399
     30 F         144.6333  142.3377  170.0182 F       1  UNL1       -0.2042
     31 C         143.0299  142.1286  167.9846 C.ar    1  UNL1        0.0273
@<TRIPOS>BOND
     1     1     2    2
     2     2     5    1
     3     5     6    1
     4     6     7   am
     5     7     8    2
     6     7    10    1
     7    10    11   ar
     8    11    12   ar
     9    12    13   ar
    10    13    14    1
    11    13    15   ar
    12    15    16   ar
    13     2     3   am
    14     3    17    1
    15    17    18    1
    16    18    19   ar
    17    19    20   ar
    18    20    21   ar
    19    21    22   ar
    20    22    23    1
    21    22    24   ar
    22    17    25    1
    23    25    26   ar
    24    26    27   ar
    25    27    28   ar
    26    28    29   ar
    27    29    30    1
    28    29    31   ar
    29    16    10   ar
    30    24    18   ar
    31    31    25   ar
    32     6     9    1
    33     3     4    1
@<TRIPOS>MOLECULE
*****
 31 33 0 0 0
SMALL
GASTEIGER

@<TRIPOS>ATOM
      1 O         138.1149  141.6978  164.7715 O.2     1  UNL1       -0.2732
      2 C         138.9925  140.5061  164.5269 C.2     1  UNL1        0.2430
      3 N         140.3726  140.4582  165.1124 N.am    1  UNL1       -0.2972
      4 H         140.9485  139.6761  164.9519 H       1  UNL1        0.1500
      5 C         138.4899  139.3624  163.6967 C.3     1  UNL1        0.1759
      6 N         138.9358  139.2170  162.2719 N.am    1  UNL1       -0.2931
      7 C         140.2557  138.5758  161.9608 C.2     1  UNL1        0.2462
      8 O         141.1297  138.0800  163.0744 O.2     1  UNL1       -0.2701
      9 H         138.3622  139.5424  161.5409 H       1  UNL1        0.1502
     10 C         140.7016  138.4305  160.5359 C.ar    1  UNL1        0.0535
     11 C         142.1514  138.2072  160.2228 C.ar    1  UNL1        0.0068
     12 C         142.5973  138.0618  158.7981 C.ar    1  UNL1        0.0298
     13 C         141.5933  138.1398  157.6863 C.ar    1  UNL1        0.1401
     14 F         142.0392  137.9944  156.2615 F       1  UNL1       -0.2042
     15 C         140.1434  138.3631  157.9994 C.ar    1  UNL1        0.0298
     16 C         139.6976  138.5084  159.4242 C.ar    1  UNL1        0.0068
     17 C         140.8752  141.6020  165.9426 C.3     1  UNL1        0.1171
     18 C         140.4715  141.7178  167.3826 C.ar    1  UNL1        0.0019
     19 C         139.9091  140.5277  168.1018 C.ar    1  UNL1       -0.0022
     20 C         139.5054  140.6435  169.5419 C.ar    1  UNL1        0.0020
     21 C         139.6641  141.9494  170.2627 C.ar    1  UNL1        0.0296
     22 C         140.2266  143.1395  169.5434 C.ar    1  UNL1        0.1399
     23 F         140.3853  144.4454  170.2641 F       1  UNL1       -0.2042
     24 C         140.6302  143.0237  168.1034 C.ar    1  UNL1        0.0273
     25 C         141.7815  142.6300  165.3328 C.ar    1  UNL1        0.0019
     26 C         143.2657  142.5309  165.5268 C.ar    1  UNL1       -0.0022
     27 C         144.1720  143.5589  164.9169 C.ar    1  UNL1        0.0020
     28 C         143.5941  144.6859  164.1131 C.ar    1  UNL1        0.0296
     29 C         142.1100  144.7849  163.9192 C.ar    1  UNL1        0.1399
     30 F         141.5322  145.9119  163.1154 F       1  UNL1       -0.2042
     31 C         141.2037  143.7569  164.5290 C.ar    1  UNL1        0.0273
@<TRIPOS>BOND
     1     1     2    2
     2     2     5    1
     3     5     6    1
     4     6     7   am
     5     7     8    2
     6     7    10    1
     7    10    11   ar
     8    11    12   ar
     9    12    13   ar
    10    13    14    1
    11    13    15   ar
    12    15    16   ar
    13     2     3   am
    14     3    17    1
    15    17    18    1
    16    18    19   ar
    17    19    20   ar
    18    20    21   ar
    19    21    22   ar
    20    22    23    1
    21    22    24   ar
    22    17    25    1
    23    25    26   ar
    24    26    27   ar
    25    27    28   ar
    26    28    29   ar
    27    29    30    1
    28    29    31   ar
    29    16    10   ar
    30    24    18   ar
    31    31    25   ar
    32     6     9    1
    33     3     4    1
@<TRIPOS>MOLECULE
*****
 31 33 0 0 0
SMALL
GASTEIGER

@<TRIPOS>ATOM
      1 O         138.2942  141.4538  164.8643 O.2     1  UNL1       -0.2732
      2 C         139.2003  140.2662  164.7277 C.2     1  UNL1        0.2430
      3 N         140.5590  140.2824  165.3629 N.am    1  UNL1       -0.2972
      4 H         141.1537  139.5030  165.2732 H       1  UNL1        0.1500
      5 C         138.7476  139.0623  163.9558 C.3     1  UNL1        0.1759
      6 N         139.0710  138.9422  162.4960 N.am    1  UNL1       -0.2931
      7 C         140.4493  138.5377  162.0640 C.2     1  UNL1        0.2462
      8 O         141.5043  138.2534  163.0918 O.2     1  UNL1       -0.2701
      9 H         138.3787  139.1288  161.8214 H       1  UNL1        0.1502
     10 C         140.7728  138.4175  160.6042 C.ar    1  UNL1        0.0535
     11 C         142.1839  138.1565  160.1677 C.ar    1  UNL1        0.0068
     12 C         142.5073  138.0363  158.7080 C.ar    1  UNL1        0.0298
     13 C         141.4196  138.1772  157.6847 C.ar    1  UNL1        0.1401
     14 F         141.7430  138.0570  156.2249 F       1  UNL1       -0.2042
     15 C         140.0085  138.4382  158.1212 C.ar    1  UNL1        0.0298
     16 C         139.6851  138.5583  159.5810 C.ar    1  UNL1        0.0068
     17 C         141.0118  141.4863  166.1348 C.3     1  UNL1        0.1171
     18 C         141.9249  142.4886  165.4934 C.ar    1  UNL1        0.0019
     19 C         143.4048  142.4114  165.7259 C.ar    1  UNL1       -0.0022
     20 C         144.3180  143.4138  165.0845 C.ar    1  UNL1        0.0020
     21 C         143.7514  144.4933  164.2106 C.ar    1  UNL1        0.0296
     22 C         142.2715  144.5704  163.9782 C.ar    1  UNL1        0.1399
     23 F         141.7048  145.6499  163.1044 F       1  UNL1       -0.2042
     24 C         141.3583  143.5681  164.6196 C.ar    1  UNL1        0.0273
     25 C         140.5513  141.6878  167.5481 C.ar    1  UNL1        0.0019
     26 C         139.9635  140.5411  168.3161 C.ar    1  UNL1       -0.0022
     27 C         139.5030  140.7426  169.7293 C.ar    1  UNL1        0.0020
     28 C         139.6303  142.0908  170.3746 C.ar    1  UNL1        0.0296
     29 C         140.2181  143.2374  169.6067 C.ar    1  UNL1        0.1399
     30 F         140.3453  144.5854  170.2519 F       1  UNL1       -0.2042
     31 C         140.6785  143.0359  168.1934 C.ar    1  UNL1        0.0273
@<TRIPOS>BOND
     1     1     2    2
     2     2     5    1
     3     5     6    1
     4     6     7   am
     5     7     8    2
     6     7    10    1
     7    10    11   ar
     8    11    12   ar
     9    12    13   ar
    10    13    14    1
    11    13    15   ar
    12    15    16   ar
    13     2     3   am
    14     3    17    1
    15    17    18    1
    16    18    19   ar
    17    19    20   ar
    18    20    21   ar
    19    21    22   ar
    20    22    23    1
    21    22    24   ar
    22    17    25    1
    23    25    26   ar
    24    26    27   ar
    25    27    28   ar
    26    28    29   ar
    27    29    30    1
    28    29    31   ar
    29    16    10   ar
    30    24    18   ar
    31    31    25   ar
    32     6     9    1
    33     3     4    1
@<TRIPOS>MOLECULE
*****
 31 33 0 0 0
SMALL
GASTEIGER

@<TRIPOS>ATOM
      1 O         138.6588  142.8385  165.0441 O.2     1  UNL1       -0.2732
      2 C         139.8738  143.4115  164.3767 C.2     1  UNL1        0.2430
      3 N         141.2402  142.9293  164.7645 N.am    1  UNL1       -0.2972
      4 H         142.0376  143.3054  164.3264 H       1  UNL1        0.1500
      5 C         139.7224  144.4668  163.3215 C.3     1  UNL1        0.1759
      6 N         140.3976  144.3007  161.9923 N.am    1  UNL1       -0.2931
      7 C         140.1583  145.2998  160.8995 C.2     1  UNL1        0.2462
      8 O         139.2438  146.4651  161.1356 O.2     1  UNL1       -0.2701
      9 H         140.9979  143.5359  161.8373 H       1  UNL1        0.1502
     10 C         140.8336  145.1337  159.5703 C.ar    1  UNL1        0.0535
     11 C         141.9932  144.1926  159.4306 C.ar    1  UNL1        0.0068
     12 C         142.6684  144.0265  158.1016 C.ar    1  UNL1        0.0298
     13 C         142.1839  144.8016  156.9122 C.ar    1  UNL1        0.1401
     14 F         142.8592  144.6355  155.5830 F       1  UNL1       -0.2042
     15 C         141.0243  145.7427  157.0519 C.ar    1  UNL1        0.0298
     16 C         140.3492  145.9088  158.3810 C.ar    1  UNL1        0.0068
     17 C         141.3916  141.8741  165.8198 C.3     1  UNL1        0.1171
     18 C         141.3222  140.4233  165.4451 C.ar    1  UNL1        0.0019
     19 C         142.5526  139.7135  164.9633 C.ar    1  UNL1       -0.0022
     20 C         142.4833  138.2626  164.5886 C.ar    1  UNL1        0.0020
     21 C         141.1834  137.5217  164.6956 C.ar    1  UNL1        0.0296
     22 C         139.9530  138.2316  165.1774 C.ar    1  UNL1        0.1399
     23 F         138.6531  137.4907  165.2845 F       1  UNL1       -0.2042
     24 C         140.0224  139.6824  165.5521 C.ar    1  UNL1        0.0273
     25 C         141.6125  142.2696  167.2497 C.ar    1  UNL1        0.0019
     26 C         140.4787  142.8297  168.0566 C.ar    1  UNL1       -0.0022
     27 C         140.6996  143.2253  169.4866 C.ar    1  UNL1        0.0020
     28 C         142.0542  143.0608  170.1096 C.ar    1  UNL1        0.0296
     29 C         143.1878  142.5007  169.3027 C.ar    1  UNL1        0.1399
     30 F         144.5423  142.3362  169.9257 F       1  UNL1       -0.2042
     31 C         142.9670  142.1051  167.8728 C.ar    1  UNL1        0.0273
@<TRIPOS>BOND
     1     1     2    2
     2     2     5    1
     3     5     6    1
     4     6     7   am
     5     7     8    2
     6     7    10    1
     7    10    11   ar
     8    11    12   ar
     9    12    13   ar
    10    13    14    1
    11    13    15   ar
    12    15    16   ar
    13     2     3   am
    14     3    17    1
    15    17    18    1
    16    18    19   ar
    17    19    20   ar
    18    20    21   ar
    19    21    22   ar
    20    22    23    1
    21    22    24   ar
    22    17    25    1
    23    25    26   ar
    24    26    27   ar
    25    27    28   ar
    26    28    29   ar
    27    29    30    1
    28    29    31   ar
    29    16    10   ar
    30    24    18   ar
    31    31    25   ar
    32     6     9    1
    33     3     4    1
