@<TRIPOS>MOLECULE
*****
 29 33 0 0 0
SMALL
GASTEIGER

@<TRIPOS>ATOM
      1 N         143.3219  140.4413  162.7268 N.3     1  UNL1       -0.2726
      2 C         141.9897  141.1287  162.7766 C.3     1  UNL1        0.0724
      3 C         141.2879  141.3099  164.0899 C.3     1  UNL1        0.0214
      4 C         141.9183  140.8037  165.3534 C.3     1  UNL1        0.0214
      5 C         143.2507  140.1163  165.3035 C.3     1  UNL1        0.0214
      6 C         143.9524  139.9350  163.9903 C.3     1  UNL1        0.0724
      7 C         141.2166  140.9849  166.6666 C.2     1  UNL1       -0.0400
      8 C         140.3938  139.8682  167.2377 C.2     1  UNL1       -0.0066
      9 C         139.6920  140.0494  168.5509 C.2     1  UNL1        0.0182
     10 C         139.8130  141.3473  169.2932 C.2     1  UNL1        0.0777
     11 N         139.2399  141.8144  170.5983 N.2     1  UNL1       -0.2442
     12 C         139.7084  143.2197  170.8338 C.2     1  UNL1        0.0985
     13 C         140.5711  143.6212  169.6743 C.2     1  UNL1        0.0182
     14 C         140.6358  142.4640  168.7221 C.2     1  UNL1        0.0011
     15 C         141.3376  142.2828  167.4088 C.3     1  UNL1        0.0498
     16 C         144.0237  140.2600  161.4136 C.3     1  UNL1        0.0739
     17 C         144.3480  138.8810  160.9205 C.3     1  UNL1        0.0392
     18 C         143.3416  137.7778  161.0626 C.3     1  UNL1        0.0996
     19 O         142.2886  138.6496  158.3922 O.2     1  UNL1       -0.2745
     20 C         141.3537  138.5050  159.5563 C.2     1  UNL1        0.2297
     21 C         139.8922  138.7964  159.3851 C.3     1  UNL1        0.0903
     22 C         138.9573  138.6518  160.5491 C.3     1  UNL1        0.0372
     23 C         139.4838  138.2159  161.8844 C.ar    1  UNL1       -0.0080
     24 C         138.5489  138.0713  163.0484 C.ar    1  UNL1       -0.0030
     25 C         139.0754  137.6354  164.3836 C.ar    1  UNL1       -0.0002
     26 C         140.5369  137.3440  164.5547 C.ar    1  UNL1        0.0013
     27 C         141.4718  137.4886  163.3907 C.ar    1  UNL1        0.0146
     28 C         140.9453  137.9245  162.0555 C.ar    1  UNL1        0.0498
     29 N         141.8802  138.0691  160.8914 N.am    1  UNL1       -0.2589
@<TRIPOS>BOND
     1    19    20    2
     2    20    21    1
     3    21    22    1
     4    22    23    1
     5    23    24   ar
     6    24    25   ar
     7    25    26   ar
     8    26    27   ar
     9    27    28   ar
    10    28    29    1
    11    29    18    1
    12    18    17    1
    13    17    16    1
    14    16     1    1
    15     1     2    1
    16     2     3    1
    17     3     4    1
    18     4     7    1
    19     7     8    2
    20     8     9    1
    21     9    10    2
    22    10    11    1
    23    11    12    2
    24    12    13    1
    25    13    14    2
    26    14    15    1
    27     4     5    1
    28     5     6    1
    29    29    20   am
    30     6     1    1
    31    28    23   ar
    32    15     7    1
    33    14    10    1
@<TRIPOS>MOLECULE
*****
 29 33 0 0 0
SMALL
GASTEIGER

@<TRIPOS>ATOM
      1 N         141.7835  139.0010  161.7007 N.3     1  UNL1       -0.2726
      2 C         141.6521  140.4540  162.0495 C.3     1  UNL1        0.0724
      3 C         141.8940  140.9122  163.4572 C.3     1  UNL1        0.0214
      4 C         142.2674  139.9175  164.5161 C.3     1  UNL1        0.0214
      5 C         142.3988  138.4645  164.1672 C.3     1  UNL1        0.0214
      6 C         142.1568  138.0063  162.7595 C.3     1  UNL1        0.0724
      7 C         142.5093  140.3756  165.9237 C.2     1  UNL1       -0.0400
      8 C         142.9326  141.7899  166.1898 C.2     1  UNL1       -0.0066
      9 C         143.1746  142.2481  167.5975 C.2     1  UNL1        0.0182
     10 C         142.9933  141.2920  168.7390 C.2     1  UNL1        0.0777
     11 N         143.1574  141.4557  170.2210 N.2     1  UNL1       -0.2442
     12 C         142.8355  140.1426  170.8708 C.2     1  UNL1        0.0985
     13 C         142.4725  139.1674  169.7904 C.2     1  UNL1        0.0182
     14 C         142.5700  139.8778  168.4729 C.2     1  UNL1        0.0011
     15 C         142.3280  139.4196  167.0652 C.3     1  UNL1        0.0498
     16 C         141.5415  138.5429  160.2931 C.3     1  UNL1        0.0739
     17 C         140.1531  138.5634  159.7258 C.3     1  UNL1        0.0392
     18 C         138.9714  138.3610  160.6275 C.3     1  UNL1        0.0996
     19 O         138.2302  141.0872  159.6184 O.2     1  UNL1       -0.2745
     20 C         138.2027  140.7992  161.0902 C.2     1  UNL1        0.2297
     21 C         137.8045  141.8743  162.0575 C.3     1  UNL1        0.0903
     22 C         137.7770  141.5863  163.5293 C.3     1  UNL1        0.0372
     23 C         138.1476  140.2232  164.0339 C.ar    1  UNL1       -0.0080
     24 C         138.1200  139.9352  165.5057 C.ar    1  UNL1       -0.0030
     25 C         138.4907  138.5721  166.0103 C.ar    1  UNL1       -0.0002
     26 C         138.8888  137.4970  165.0430 C.ar    1  UNL1        0.0013
     27 C         138.9164  137.7850  163.5712 C.ar    1  UNL1        0.0146
     28 C         138.5458  139.1481  163.0667 C.ar    1  UNL1        0.0498
     29 N         138.5733  139.4361  161.5948 N.am    1  UNL1       -0.2589
@<TRIPOS>BOND
     1    19    20    2
     2    20    21    1
     3    21    22    1
     4    22    23    1
     5    23    24   ar
     6    24    25   ar
     7    25    26   ar
     8    26    27   ar
     9    27    28   ar
    10    28    29    1
    11    29    18    1
    12    18    17    1
    13    17    16    1
    14    16     1    1
    15     1     2    1
    16     2     3    1
    17     3     4    1
    18     4     7    1
    19     7     8    2
    20     8     9    1
    21     9    10    2
    22    10    11    1
    23    11    12    2
    24    12    13    1
    25    13    14    2
    26    14    15    1
    27     4     5    1
    28     5     6    1
    29    29    20   am
    30     6     1    1
    31    28    23   ar
    32    15     7    1
    33    14    10    1
@<TRIPOS>MOLECULE
*****
 29 33 0 0 0
SMALL
GASTEIGER

@<TRIPOS>ATOM
      1 N         140.6495  140.3733  162.0063 N.3     1  UNL1       -0.2726
      2 C         141.7886  140.8123  162.8778 C.3     1  UNL1        0.0724
      3 C         141.5850  140.9699  164.3556 C.3     1  UNL1        0.0214
      4 C         140.2422  140.6883  164.9618 C.3     1  UNL1        0.0214
      5 C         139.1030  140.2493  164.0903 C.3     1  UNL1        0.0214
      6 C         139.3066  140.0917  162.6126 C.3     1  UNL1        0.0724
      7 C         140.0386  140.8459  166.4395 C.2     1  UNL1       -0.0400
      8 C         139.4384  139.7264  167.2375 C.2     1  UNL1       -0.0066
      9 C         139.2348  139.8840  168.7152 C.2     1  UNL1        0.0182
     10 C         139.6313  141.1609  169.3950 C.2     1  UNL1        0.0777
     11 N         139.5517  141.6027  170.8263 N.2     1  UNL1       -0.2442
     12 C         140.1027  142.9951  170.9129 C.2     1  UNL1        0.0985
     13 C         140.5228  143.4139  169.5352 C.2     1  UNL1        0.0182
     14 C         140.2314  142.2803  168.5972 C.2     1  UNL1        0.0011
     15 C         140.4351  142.1228  167.1194 C.3     1  UNL1        0.0498
     16 C         140.8531  140.2157  160.5286 C.3     1  UNL1        0.0739
     17 C         141.1387  141.4181  159.6785 C.3     1  UNL1        0.0392
     18 C         140.5264  142.7433  160.0237 C.3     1  UNL1        0.0996
     19 O         143.3785  143.6398  160.2732 O.2     1  UNL1       -0.2745
     20 C         142.4022  143.9289  161.3748 C.2     1  UNL1        0.2297
     21 C         142.8521  144.6662  162.6012 C.3     1  UNL1        0.0903
     22 C         141.8759  144.9553  163.7028 C.3     1  UNL1        0.0372
     23 C         140.4499  144.5070  163.5780 C.ar    1  UNL1       -0.0080
     24 C         139.4737  144.7961  164.6796 C.ar    1  UNL1       -0.0030
     25 C         138.0478  144.3478  164.5548 C.ar    1  UNL1       -0.0002
     26 C         137.5979  143.6105  163.3285 C.ar    1  UNL1        0.0013
     27 C         138.5741  143.3214  162.2269 C.ar    1  UNL1        0.0146
     28 C         140.0000  143.7697  162.3517 C.ar    1  UNL1        0.0498
     29 N         140.9763  143.4806  161.2500 N.am    1  UNL1       -0.2589
@<TRIPOS>BOND
     1    19    20    2
     2    20    21    1
     3    21    22    1
     4    22    23    1
     5    23    24   ar
     6    24    25   ar
     7    25    26   ar
     8    26    27   ar
     9    27    28   ar
    10    28    29    1
    11    29    18    1
    12    18    17    1
    13    17    16    1
    14    16     1    1
    15     1     2    1
    16     2     3    1
    17     3     4    1
    18     4     7    1
    19     7     8    2
    20     8     9    1
    21     9    10    2
    22    10    11    1
    23    11    12    2
    24    12    13    1
    25    13    14    2
    26    14    15    1
    27     4     5    1
    28     5     6    1
    29    29    20   am
    30     6     1    1
    31    28    23   ar
    32    15     7    1
    33    14    10    1
@<TRIPOS>MOLECULE
*****
 29 33 0 0 0
SMALL
GASTEIGER

@<TRIPOS>ATOM
      1 N         141.7028  141.4908  162.2613 N.3     1  UNL1       -0.2726
      2 C         141.3593  142.8097  162.8877 C.3     1  UNL1        0.0724
      3 C         141.4484  142.9793  164.3755 C.3     1  UNL1        0.0214
      4 C         141.8809  141.8299  165.2368 C.3     1  UNL1        0.0214
      5 C         142.2245  140.5109  164.6103 C.3     1  UNL1        0.0214
      6 C         142.1354  140.3414  163.1226 C.3     1  UNL1        0.0724
      7 C         141.9700  141.9994  166.7245 C.2     1  UNL1       -0.0400
      8 C         143.2949  142.2804  167.3693 C.2     1  UNL1       -0.0066
      9 C         143.3839  142.4499  168.8570 C.2     1  UNL1        0.0182
     10 C         142.1482  142.3385  169.6999 C.2     1  UNL1        0.0777
     11 N         141.9279  142.4573  171.1789 N.2     1  UNL1       -0.2442
     12 C         140.4670  142.2497  171.4481 C.2     1  UNL1        0.0985
     13 C         139.7843  142.0027  170.1355 C.2     1  UNL1        0.0182
     14 C         140.8233  142.0576  169.0551 C.2     1  UNL1        0.0011
     15 C         140.7342  141.8880  167.5673 C.3     1  UNL1        0.0498
     16 C         141.6138  141.3212  160.7736 C.3     1  UNL1        0.0739
     17 C         140.7272  140.2606  160.1913 C.3     1  UNL1        0.0392
     18 C         139.2451  140.3150  160.4168 C.3     1  UNL1        0.0996
     19 O         138.1899  143.1229  160.4644 O.2     1  UNL1       -0.2745
     20 C         138.1734  142.2941  161.7146 C.2     1  UNL1        0.2297
     21 C         137.6292  142.8694  162.9886 C.3     1  UNL1        0.0903
     22 C         137.6127  142.0407  164.2387 C.3     1  UNL1        0.0372
     23 C         138.1403  140.6368  164.2150 C.ar    1  UNL1       -0.0080
     24 C         138.1238  139.8081  165.4652 C.ar    1  UNL1       -0.0030
     25 C         138.6515  138.4042  165.4414 C.ar    1  UNL1       -0.0002
     26 C         139.1956  137.8290  164.1675 C.ar    1  UNL1        0.0013
     27 C         139.2121  138.6576  162.9173 C.ar    1  UNL1        0.0146
     28 C         138.6845  140.0615  162.9410 C.ar    1  UNL1        0.0498
     29 N         138.7010  140.8902  161.6908 N.am    1  UNL1       -0.2589
@<TRIPOS>BOND
     1    19    20    2
     2    20    21    1
     3    21    22    1
     4    22    23    1
     5    23    24   ar
     6    24    25   ar
     7    25    26   ar
     8    26    27   ar
     9    27    28   ar
    10    28    29    1
    11    29    18    1
    12    18    17    1
    13    17    16    1
    14    16     1    1
    15     1     2    1
    16     2     3    1
    17     3     4    1
    18     4     7    1
    19     7     8    2
    20     8     9    1
    21     9    10    2
    22    10    11    1
    23    11    12    2
    24    12    13    1
    25    13    14    2
    26    14    15    1
    27     4     5    1
    28     5     6    1
    29    29    20   am
    30     6     1    1
    31    28    23   ar
    32    15     7    1
    33    14    10    1
@<TRIPOS>MOLECULE
*****
 29 33 0 0 0
SMALL
GASTEIGER

@<TRIPOS>ATOM
      1 N         140.7484  141.0566  161.6995 N.3     1  UNL1       -0.2726
      2 C         140.4047  142.3441  162.3880 C.3     1  UNL1        0.0724
      3 C         140.2034  142.3692  163.8743 C.3     1  UNL1        0.0214
      4 C         140.3458  141.1069  164.6719 C.3     1  UNL1        0.0214
      5 C         140.6895  139.8193  163.9832 C.3     1  UNL1        0.0214
      6 C         140.8908  139.7942  162.4971 C.3     1  UNL1        0.0724
      7 C         140.1445  141.1320  166.1581 C.2     1  UNL1       -0.0400
      8 C         139.6124  139.9198  166.8635 C.2     1  UNL1       -0.0066
      9 C         139.4111  139.9449  168.3497 C.2     1  UNL1        0.0182
     10 C         139.7418  141.1822  169.1306 C.2     1  UNL1        0.0777
     11 N         139.6485  141.5009  170.5933 N.2     1  UNL1       -0.2442
     12 C         140.1228  142.9099  170.7920 C.2     1  UNL1        0.0985
     13 C         140.5093  143.4622  169.4520 C.2     1  UNL1        0.0182
     14 C         140.2739  142.3944  168.4252 C.2     1  UNL1        0.0011
     15 C         140.4752  142.3693  166.9389 C.3     1  UNL1        0.0498
     16 C         140.9497  141.0314  160.2133 C.3     1  UNL1        0.0739
     17 C         142.3073  140.7414  159.6451 C.3     1  UNL1        0.0392
     18 C         143.5198  141.4117  160.2201 C.3     1  UNL1        0.0996
     19 O         144.2270  138.6427  161.1326 O.2     1  UNL1       -0.2745
     20 C         144.2579  139.7839  162.1057 C.2     1  UNL1        0.2297
     21 C         144.6424  139.5405  163.5350 C.3     1  UNL1        0.0903
     22 C         144.6732  140.6816  164.5081 C.3     1  UNL1        0.0372
     23 C         144.3196  142.0662  164.0519 C.ar    1  UNL1       -0.0080
     24 C         144.3505  143.2073  165.0249 C.ar    1  UNL1       -0.0030
     25 C         143.9969  144.5917  164.5687 C.ar    1  UNL1       -0.0002
     26 C         143.6124  144.8351  163.1394 C.ar    1  UNL1        0.0013
     27 C         143.5816  143.6940  162.1663 C.ar    1  UNL1        0.0146
     28 C         143.9352  142.3095  162.6225 C.ar    1  UNL1        0.0498
     29 N         143.9043  141.1683  161.6495 N.am    1  UNL1       -0.2589
@<TRIPOS>BOND
     1    19    20    2
     2    20    21    1
     3    21    22    1
     4    22    23    1
     5    23    24   ar
     6    24    25   ar
     7    25    26   ar
     8    26    27   ar
     9    27    28   ar
    10    28    29    1
    11    29    18    1
    12    18    17    1
    13    17    16    1
    14    16     1    1
    15     1     2    1
    16     2     3    1
    17     3     4    1
    18     4     7    1
    19     7     8    2
    20     8     9    1
    21     9    10    2
    22    10    11    1
    23    11    12    2
    24    12    13    1
    25    13    14    2
    26    14    15    1
    27     4     5    1
    28     5     6    1
    29    29    20   am
    30     6     1    1
    31    28    23   ar
    32    15     7    1
    33    14    10    1
@<TRIPOS>MOLECULE
*****
 29 33 0 0 0
SMALL
GASTEIGER

@<TRIPOS>ATOM
      1 N         142.5129  140.1410  162.3794 N.3     1  UNL1       -0.2726
      2 C         143.2249  139.6056  163.5862 C.3     1  UNL1        0.0724
      3 C         142.6548  139.8317  164.9551 C.3     1  UNL1        0.0214
      4 C         141.3728  140.5932  165.1173 C.3     1  UNL1        0.0214
      5 C         140.6607  141.1287  163.9104 C.3     1  UNL1        0.0214
      6 C         141.2308  140.9026  162.5416 C.3     1  UNL1        0.0724
      7 C         140.8027  140.8193  166.4861 C.2     1  UNL1       -0.0400
      8 C         139.9645  139.7575  167.1343 C.2     1  UNL1       -0.0066
      9 C         139.3944  139.9836  168.5032 C.2     1  UNL1        0.0182
     10 C         139.6625  141.2715  169.2239 C.2     1  UNL1        0.0777
     11 N         139.2377  141.7747  170.5716 N.2     1  UNL1       -0.2442
     12 C         139.8133  143.1475  170.7564 C.2     1  UNL1        0.0985
     13 C         140.5939  143.4927  169.5229 C.2     1  UNL1        0.0182
     14 C         140.5007  142.3333  168.5758 C.2     1  UNL1        0.0011
     15 C         141.0708  142.1072  167.2069 C.3     1  UNL1        0.0498
     16 C         143.0830  139.9149  161.0106 C.3     1  UNL1        0.0739
     17 C         143.3696  141.0836  160.1151 C.3     1  UNL1        0.0392
     18 C         144.2620  142.1917  160.5906 C.3     1  UNL1        0.0996
     19 O         146.0290  141.5887  162.9388 O.2     1  UNL1       -0.2745
     20 C         144.8850  142.5475  163.0876 C.2     1  UNL1        0.2297
     21 C         144.6245  143.2048  164.4105 C.3     1  UNL1        0.0903
     22 C         143.4806  144.1636  164.5593 C.3     1  UNL1        0.0372
     23 C         142.5971  144.4651  163.3852 C.ar    1  UNL1       -0.0080
     24 C         141.4532  145.4239  163.5340 C.ar    1  UNL1       -0.0030
     25 C         140.5697  145.7253  162.3599 C.ar    1  UNL1       -0.0002
     26 C         140.8302  145.0680  161.0370 C.ar    1  UNL1        0.0013
     27 C         141.9741  144.1093  160.8881 C.ar    1  UNL1        0.0146
     28 C         142.8575  143.8078  162.0623 C.ar    1  UNL1        0.0498
     29 N         144.0015  142.8490  161.9135 N.am    1  UNL1       -0.2589
@<TRIPOS>BOND
     1    19    20    2
     2    20    21    1
     3    21    22    1
     4    22    23    1
     5    23    24   ar
     6    24    25   ar
     7    25    26   ar
     8    26    27   ar
     9    27    28   ar
    10    28    29    1
    11    29    18    1
    12    18    17    1
    13    17    16    1
    14    16     1    1
    15     1     2    1
    16     2     3    1
    17     3     4    1
    18     4     7    1
    19     7     8    2
    20     8     9    1
    21     9    10    2
    22    10    11    1
    23    11    12    2
    24    12    13    1
    25    13    14    2
    26    14    15    1
    27     4     5    1
    28     5     6    1
    29    29    20   am
    30     6     1    1
    31    28    23   ar
    32    15     7    1
    33    14    10    1
@<TRIPOS>MOLECULE
*****
 29 33 0 0 0
SMALL
GASTEIGER

@<TRIPOS>ATOM
      1 N         141.1870  138.5458  162.3859 N.3     1  UNL1       -0.2726
      2 C         140.7100  139.9203  162.7509 C.3     1  UNL1        0.0724
      3 C         140.5342  140.2949  164.1928 C.3     1  UNL1        0.0214
      4 C         140.8354  139.2950  165.2695 C.3     1  UNL1        0.0214
      5 C         141.3124  137.9205  164.9045 C.3     1  UNL1        0.0214
      6 C         141.4882  137.5459  163.4627 C.3     1  UNL1        0.0724
      7 C         140.6596  139.6696  166.7113 C.2     1  UNL1       -0.0400
      8 C         139.2875  139.6983  167.3169 C.2     1  UNL1       -0.0066
      9 C         139.1118  140.0729  168.7587 C.2     1  UNL1        0.0182
     10 C         140.3080  140.4187  169.5949 C.2     1  UNL1        0.0777
     11 N         140.4444  140.8232  171.0329 N.2     1  UNL1       -0.2442
     12 C         141.9007  141.0444  171.3161 C.2     1  UNL1        0.0985
     13 C         142.6644  140.7767  170.0531 C.2     1  UNL1        0.0182
     14 C         141.6800  140.3900  168.9895 C.2     1  UNL1        0.0011
     15 C         141.8559  140.0154  167.5476 C.3     1  UNL1        0.0498
     16 C         141.3627  138.1712  160.9442 C.3     1  UNL1        0.0739
     17 C         142.6325  137.5151  160.4891 C.3     1  UNL1        0.0392
     18 C         143.9544  138.1700  160.7611 C.3     1  UNL1        0.0996
     19 O         143.7814  139.5587  158.1075 O.2     1  UNL1       -0.2745
     20 C         143.9948  140.3571  159.3593 C.2     1  UNL1        0.2297
     21 C         144.1217  141.8498  159.2843 C.3     1  UNL1        0.0903
     22 C         144.3351  142.6482  160.5361 C.3     1  UNL1        0.0372
     23 C         144.4216  141.9539  161.8630 C.ar    1  UNL1       -0.0080
     24 C         144.6350  142.7523  163.1147 C.ar    1  UNL1       -0.0030
     25 C         144.7214  142.0580  164.4415 C.ar    1  UNL1       -0.0002
     26 C         144.5945  140.5653  164.5165 C.ar    1  UNL1        0.0013
     27 C         144.3811  139.7668  163.2648 C.ar    1  UNL1        0.0146
     28 C         144.2947  140.4612  161.9380 C.ar    1  UNL1        0.0498
     29 N         144.0813  139.6628  160.6861 N.am    1  UNL1       -0.2589
@<TRIPOS>BOND
     1    19    20    2
     2    20    21    1
     3    21    22    1
     4    22    23    1
     5    23    24   ar
     6    24    25   ar
     7    25    26   ar
     8    26    27   ar
     9    27    28   ar
    10    28    29    1
    11    29    18    1
    12    18    17    1
    13    17    16    1
    14    16     1    1
    15     1     2    1
    16     2     3    1
    17     3     4    1
    18     4     7    1
    19     7     8    2
    20     8     9    1
    21     9    10    2
    22    10    11    1
    23    11    12    2
    24    12    13    1
    25    13    14    2
    26    14    15    1
    27     4     5    1
    28     5     6    1
    29    29    20   am
    30     6     1    1
    31    28    23   ar
    32    15     7    1
    33    14    10    1
@<TRIPOS>MOLECULE
*****
 29 33 0 0 0
SMALL
GASTEIGER

@<TRIPOS>ATOM
      1 N         139.4049  139.4697  161.7905 N.3     1  UNL1       -0.2726
      2 C         138.5154  138.8968  162.8538 C.3     1  UNL1        0.0724
      3 C         138.9262  138.9696  164.2947 C.3     1  UNL1        0.0214
      4 C         140.2265  139.6152  164.6722 C.3     1  UNL1        0.0214
      5 C         141.1160  140.1880  163.6088 C.3     1  UNL1        0.0214
      6 C         140.7052  140.1152  162.1680 C.3     1  UNL1        0.0724
      7 C         140.6373  139.6880  166.1130 C.2     1  UNL1       -0.0400
      8 C         142.0501  139.3733  166.5069 C.2     1  UNL1       -0.0066
      9 C         142.4609  139.4461  167.9477 C.2     1  UNL1        0.0182
     10 C         141.4590  139.8335  168.9946 C.2     1  UNL1        0.0777
     11 N         141.5709  139.9890  170.4823 N.2     1  UNL1       -0.2442
     12 C         140.2274  140.3997  171.0079 C.2     1  UNL1        0.0985
     13 C         139.2851  140.4981  169.8450 C.2     1  UNL1        0.0182
     14 C         140.0462  140.1482  168.6008 C.2     1  UNL1        0.0011
     15 C         139.6354  140.0754  167.1599 C.3     1  UNL1        0.0498
     16 C         138.9941  139.3969  160.3498 C.3     1  UNL1        0.0739
     17 C         139.0941  140.6141  159.4789 C.3     1  UNL1        0.0392
     18 C         138.3125  141.8477  159.8216 C.3     1  UNL1        0.0996
     19 O         140.0470  143.5848  158.0969 O.2     1  UNL1       -0.2745
     20 C         139.8765  143.9048  159.5525 C.2     1  UNL1        0.2297
     21 C         140.5732  145.0934  160.1457 C.3     1  UNL1        0.0903
     22 C         140.4027  145.4135  161.6011 C.3     1  UNL1        0.0372
     23 C         139.5354  144.5450  162.4635 C.ar    1  UNL1       -0.0080
     24 C         139.3649  144.8651  163.9190 C.ar    1  UNL1       -0.0030
     25 C         138.4977  143.9966  164.7813 C.ar    1  UNL1       -0.0002
     26 C         137.8010  142.8080  164.1881 C.ar    1  UNL1        0.0013
     27 C         137.9715  142.4879  162.7326 C.ar    1  UNL1        0.0146
     28 C         138.8387  143.3564  161.8703 C.ar    1  UNL1        0.0498
     29 N         139.0093  143.0363  160.4148 N.am    1  UNL1       -0.2589
@<TRIPOS>BOND
     1    19    20    2
     2    20    21    1
     3    21    22    1
     4    22    23    1
     5    23    24   ar
     6    24    25   ar
     7    25    26   ar
     8    26    27   ar
     9    27    28   ar
    10    28    29    1
    11    29    18    1
    12    18    17    1
    13    17    16    1
    14    16     1    1
    15     1     2    1
    16     2     3    1
    17     3     4    1
    18     4     7    1
    19     7     8    2
    20     8     9    1
    21     9    10    2
    22    10    11    1
    23    11    12    2
    24    12    13    1
    25    13    14    2
    26    14    15    1
    27     4     5    1
    28     5     6    1
    29    29    20   am
    30     6     1    1
    31    28    23   ar
    32    15     7    1
    33    14    10    1
@<TRIPOS>MOLECULE
*****
 29 33 0 0 0
SMALL
GASTEIGER

@<TRIPOS>ATOM
      1 N         139.7373  138.5139  163.1614 N.3     1  UNL1       -0.2726
      2 C         138.9553  138.0365  164.3490 C.3     1  UNL1        0.0724
      3 C         139.1891  138.6511  165.6972 C.3     1  UNL1        0.0214
      4 C         140.2050  139.7430  165.8578 C.3     1  UNL1        0.0214
      5 C         140.9870  140.2203  164.6701 C.3     1  UNL1        0.0214
      6 C         140.7532  139.6058  163.3219 C.3     1  UNL1        0.0724
      7 C         140.4388  140.3575  167.2060 C.2     1  UNL1       -0.0400
      8 C         139.4206  140.1879  168.2944 C.2     1  UNL1       -0.0066
      9 C         139.6544  140.8025  169.6425 C.2     1  UNL1        0.0182
     10 C         140.9065  141.5866  169.9024 C.2     1  UNL1        0.0777
     11 N         141.4077  142.3022  171.1217 N.2     1  UNL1       -0.2442
     12 C         142.7357  142.9140  170.7869 C.2     1  UNL1        0.0985
     13 C         143.0552  142.5766  169.3607 C.2     1  UNL1        0.0182
     14 C         141.9247  141.7562  168.8141 C.2     1  UNL1        0.0011
     15 C         141.6909  141.1416  167.4658 C.3     1  UNL1        0.0498
     16 C         139.5035  137.8994  161.8132 C.3     1  UNL1        0.0739
     17 C         138.1650  138.0338  161.1496 C.3     1  UNL1        0.0392
     18 C         137.3587  139.2852  161.3341 C.3     1  UNL1        0.0996
     19 O         138.2872  139.8017  158.5286 O.2     1  UNL1       -0.2745
     20 C         138.4112  140.8749  159.5693 C.2     1  UNL1        0.2297
     21 C         138.9995  142.2064  159.2072 C.3     1  UNL1        0.0903
     22 C         139.1235  143.2795  160.2478 C.3     1  UNL1        0.0372
     23 C         138.6592  143.0213  161.6506 C.ar    1  UNL1       -0.0080
     24 C         138.7833  144.0944  162.6912 C.ar    1  UNL1       -0.0030
     25 C         138.3190  143.8361  164.0939 C.ar    1  UNL1       -0.0002
     26 C         137.7307  142.5047  164.4560 C.ar    1  UNL1        0.0013
     27 C         137.6067  141.4315  163.4154 C.ar    1  UNL1        0.0146
     28 C         138.0710  141.6898  162.0127 C.ar    1  UNL1        0.0498
     29 N         137.9470  140.6166  160.9720 N.am    1  UNL1       -0.2589
@<TRIPOS>BOND
     1    19    20    2
     2    20    21    1
     3    21    22    1
     4    22    23    1
     5    23    24   ar
     6    24    25   ar
     7    25    26   ar
     8    26    27   ar
     9    27    28   ar
    10    28    29    1
    11    29    18    1
    12    18    17    1
    13    17    16    1
    14    16     1    1
    15     1     2    1
    16     2     3    1
    17     3     4    1
    18     4     7    1
    19     7     8    2
    20     8     9    1
    21     9    10    2
    22    10    11    1
    23    11    12    2
    24    12    13    1
    25    13    14    2
    26    14    15    1
    27     4     5    1
    28     5     6    1
    29    29    20   am
    30     6     1    1
    31    28    23   ar
    32    15     7    1
    33    14    10    1
