@<TRIPOS>MOLECULE
*****
 28 30 0 0 0
SMALL
GASTEIGER

@<TRIPOS>ATOM
      1 C         141.0036  140.2422  168.6958 C.ar    1  UNL1        0.1457
      2 C         140.3222  140.5260  170.0016 C.ar    1  UNL1        0.1061
      3 C         138.8698  140.1949  170.1773 C.ar    1  UNL1        0.1063
      4 N         138.0987  139.5801  169.0471 N.ar    1  UNL1       -0.2435
      5 C         138.7800  139.2963  167.7412 C.ar    1  UNL1        0.0842
      6 C         138.0089  138.6814  166.6111 C.ar    1  UNL1        0.0192
      7 C         138.6902  138.3977  165.3052 C.ar    1  UNL1        0.0016
      8 C         140.1427  138.7287  165.1296 C.ar    1  UNL1        0.0017
      9 C         140.9138  139.3436  166.2597 C.ar    1  UNL1        0.0046
     10 C         140.2324  139.6273  167.5656 C.ar    1  UNL1        0.0518
     11 C         140.8240  138.4449  163.8236 C.ar    1  UNL1        0.0192
     12 C         142.3141  138.5744  163.7115 C.ar    1  UNL1        0.0031
     13 C         142.9954  138.2906  162.4055 C.ar    1  UNL1        0.0207
     14 C         142.1865  137.8773  161.2119 C.ar    1  UNL1        0.0989
     15 N         140.6963  137.7479  161.3241 N.ar    1  UNL1       -0.2423
     16 C         140.0150  138.0317  162.6300 C.ar    1  UNL1        0.0988
     17 C         141.0933  141.1409  171.1319 C.2     1  UNL1        0.2472
     18 N         142.4519  140.6135  171.4873 N.am    1  UNL1       -0.3252
     19 O         140.5059  142.2830  171.9067 O.2     1  UNL1       -0.2702
     20 H         142.8374  139.8638  170.9788 H       1  UNL1        0.1453
     21 H         142.9580  141.0170  172.2291 H       1  UNL1        0.1453
     22 O         142.4560  140.5733  168.5201 O.3     1  UNL1       -0.4752
     23 C         142.8628  141.9404  168.0556 C.3     1  UNL1        0.2053
     24 C         142.6004  142.3602  166.6397 C.3     1  UNL1        0.0438
     25 C         140.7771  142.7452  164.8294 C.3     1  UNL1        0.0001
     26 C         141.2465  142.8737  166.2482 C.3     1  UNL1        0.0037
     27 C         143.6921  142.2666  165.6151 C.3     1  UNL1        0.0037
     28 C         144.5179  143.4749  165.2866 C.3     1  UNL1        0.0001
@<TRIPOS>BOND
     1    25    26    1
     2    26    24    1
     3    24    27    1
     4    27    28    1
     5    24    23    1
     6    23    22    1
     7    22     1    1
     8     1     2   ar
     9     2    17    1
    10    17    18   am
    11    17    19    2
    12     2     3   ar
    13     3     4   ar
    14     4     5   ar
    15     5     6   ar
    16     6     7   ar
    17     7     8   ar
    18     8    11    1
    19    11    12   ar
    20    12    13   ar
    21    13    14   ar
    22    14    15   ar
    23    15    16   ar
    24     8     9   ar
    25     9    10   ar
    26    10     1   ar
    27    10     5   ar
    28    16    11   ar
    29    18    20    1
    30    18    21    1
@<TRIPOS>MOLECULE
*****
 28 30 0 0 0
SMALL
GASTEIGER

@<TRIPOS>ATOM
      1 C         139.4877  139.1383  163.7587 C.ar    1  UNL1        0.1457
      2 C         139.9104  138.2810  162.6028 C.ar    1  UNL1        0.1061
      3 C         141.2570  137.6201  162.6122 C.ar    1  UNL1        0.1063
      4 N         142.1807  137.8165  163.7775 N.ar    1  UNL1       -0.2435
      5 C         141.7580  138.6739  164.9335 C.ar    1  UNL1        0.0842
      6 C         142.6818  138.8703  166.0988 C.ar    1  UNL1        0.0192
      7 C         142.2590  139.7277  167.2547 C.ar    1  UNL1        0.0016
      8 C         140.9125  140.3886  167.2453 C.ar    1  UNL1        0.0017
      9 C         139.9887  140.1922  166.0800 C.ar    1  UNL1        0.0046
     10 C         140.4115  139.3348  164.9241 C.ar    1  UNL1        0.0518
     11 C         140.4898  141.2460  168.4013 C.ar    1  UNL1        0.0192
     12 C         140.8972  142.6886  168.4536 C.ar    1  UNL1        0.0031
     13 C         140.4745  143.5460  169.6096 C.ar    1  UNL1        0.0207
     14 C         139.6443  142.9607  170.7133 C.ar    1  UNL1        0.0989
     15 N         139.2369  141.5179  170.6610 N.ar    1  UNL1       -0.2423
     16 C         139.6596  140.6606  169.5051 C.ar    1  UNL1        0.0988
     17 C         138.9867  138.0845  161.4374 C.2     1  UNL1        0.2472
     18 N         137.5545  137.7048  161.6713 N.am    1  UNL1       -0.3252
     19 O         139.4950  138.2678  160.0381 O.2     1  UNL1       -0.2702
     20 H         137.2208  137.5845  162.5897 H       1  UNL1        0.1453
     21 H         136.9482  137.5759  160.9064 H       1  UNL1        0.1453
     22 O         138.1412  139.7993  163.7493 O.3     1  UNL1       -0.4752
     23 C         137.9567  141.1158  163.0544 C.3     1  UNL1        0.2053
     24 C         138.6940  142.3291  163.5384 C.3     1  UNL1        0.0438
     25 C         141.2798  142.5790  163.5715 C.3     1  UNL1        0.0001
     26 C         139.9670  142.7508  162.8665 C.3     1  UNL1        0.0037
     27 C         138.1582  143.1207  164.6944 C.3     1  UNL1        0.0037
     28 C         138.4246  144.5942  164.7821 C.3     1  UNL1        0.0001
@<TRIPOS>BOND
     1    25    26    1
     2    26    24    1
     3    24    27    1
     4    27    28    1
     5    24    23    1
     6    23    22    1
     7    22     1    1
     8     1     2   ar
     9     2    17    1
    10    17    18   am
    11    17    19    2
    12     2     3   ar
    13     3     4   ar
    14     4     5   ar
    15     5     6   ar
    16     6     7   ar
    17     7     8   ar
    18     8    11    1
    19    11    12   ar
    20    12    13   ar
    21    13    14   ar
    22    14    15   ar
    23    15    16   ar
    24     8     9   ar
    25     9    10   ar
    26    10     1   ar
    27    10     5   ar
    28    16    11   ar
    29    18    20    1
    30    18    21    1
@<TRIPOS>MOLECULE
*****
 28 30 0 0 0
SMALL
GASTEIGER

@<TRIPOS>ATOM
      1 C         141.0596  141.6366  168.0546 C.ar    1  UNL1        0.1457
      2 C         141.3604  141.6030  169.5237 C.ar    1  UNL1        0.1061
      3 C         140.5769  140.6995  170.4292 C.ar    1  UNL1        0.1063
      4 N         139.4927  139.8297  169.8656 N.ar    1  UNL1       -0.2435
      5 C         139.1918  139.8633  168.3964 C.ar    1  UNL1        0.0842
      6 C         138.1075  138.9935  167.8328 C.ar    1  UNL1        0.0192
      7 C         137.8066  139.0271  166.3637 C.ar    1  UNL1        0.0016
      8 C         138.5901  139.9306  165.4582 C.ar    1  UNL1        0.0017
      9 C         139.6744  140.8004  166.0218 C.ar    1  UNL1        0.0046
     10 C         139.9752  140.7668  167.4909 C.ar    1  UNL1        0.0518
     11 C         138.2892  139.9642  163.9890 C.ar    1  UNL1        0.0192
     12 C         138.5794  138.7647  163.1364 C.ar    1  UNL1        0.0031
     13 C         138.2785  138.7984  161.6672 C.ar    1  UNL1        0.0207
     14 C         137.6875  140.0315  161.0507 C.ar    1  UNL1        0.0989
     15 N         137.3973  141.2310  161.9035 N.ar    1  UNL1       -0.2423
     16 C         137.6982  141.1974  163.3725 C.ar    1  UNL1        0.0988
     17 C         142.4448  142.4728  170.0874 C.2     1  UNL1        0.2472
     18 N         143.8520  141.9598  170.1676 N.am    1  UNL1       -0.3252
     19 O         142.1218  143.8555  170.5707 O.2     1  UNL1       -0.2702
     20 H         144.0640  141.0523  169.8503 H       1  UNL1        0.1453
     21 H         144.5637  142.5307  170.5375 H       1  UNL1        0.1453
     22 O         141.8430  142.5401  167.1491 O.3     1  UNL1       -0.4752
     23 C         143.1480  142.0761  166.5729 C.3     1  UNL1        0.2053
     24 C         143.1655  141.0071  165.5208 C.3     1  UNL1        0.0438
     25 C         141.8766  141.9768  163.4841 C.3     1  UNL1        0.0001
     26 C         143.1234  141.3826  164.0692 C.3     1  UNL1        0.0037
     27 C         143.2251  139.5625  165.9204 C.3     1  UNL1        0.0037
     28 C         142.4920  138.5308  165.1153 C.3     1  UNL1        0.0001
@<TRIPOS>BOND
     1    25    26    1
     2    26    24    1
     3    24    27    1
     4    27    28    1
     5    24    23    1
     6    23    22    1
     7    22     1    1
     8     1     2   ar
     9     2    17    1
    10    17    18   am
    11    17    19    2
    12     2     3   ar
    13     3     4   ar
    14     4     5   ar
    15     5     6   ar
    16     6     7   ar
    17     7     8   ar
    18     8    11    1
    19    11    12   ar
    20    12    13   ar
    21    13    14   ar
    22    14    15   ar
    23    15    16   ar
    24     8     9   ar
    25     9    10   ar
    26    10     1   ar
    27    10     5   ar
    28    16    11   ar
    29    18    20    1
    30    18    21    1
@<TRIPOS>MOLECULE
*****
 28 30 0 0 0
SMALL
GASTEIGER

@<TRIPOS>ATOM
      1 C         140.7097  141.6739  167.8485 C.ar    1  UNL1        0.1457
      2 C         140.6275  142.0128  169.3074 C.ar    1  UNL1        0.1061
      3 C         139.6755  141.2702  170.1974 C.ar    1  UNL1        0.1063
      4 N         138.8057  140.1887  169.6286 N.ar    1  UNL1       -0.2435
      5 C         138.8878  139.8497  168.1697 C.ar    1  UNL1        0.0842
      6 C         138.0180  138.7681  167.6009 C.ar    1  UNL1        0.0192
      7 C         138.1002  138.4292  166.1420 C.ar    1  UNL1        0.0016
      8 C         139.0522  139.1718  165.2520 C.ar    1  UNL1        0.0017
      9 C         139.9220  140.2534  165.8208 C.ar    1  UNL1        0.0046
     10 C         139.8398  140.5923  167.2796 C.ar    1  UNL1        0.0518
     11 C         139.1343  138.8329  163.7930 C.ar    1  UNL1        0.0192
     12 C         138.0986  139.3554  162.8422 C.ar    1  UNL1        0.0031
     13 C         138.1807  139.0164  161.3832 C.ar    1  UNL1        0.0207
     14 C         139.2987  138.1549  160.8752 C.ar    1  UNL1        0.0989
     15 N         140.3344  137.6324  161.8262 N.ar    1  UNL1       -0.2423
     16 C         140.2522  137.9714  163.2850 C.ar    1  UNL1        0.0988
     17 C         141.4974  143.0944  169.8763 C.2     1  UNL1        0.2472
     18 N         142.9795  142.8881  169.9798 N.am    1  UNL1       -0.3252
     19 O         140.8851  144.3822  170.3417 O.2     1  UNL1       -0.2702
     20 H         143.3814  142.0429  169.6743 H       1  UNL1        0.1453
     21 H         143.5504  143.5980  170.3531 H       1  UNL1        0.1453
     22 O         141.6617  142.4165  166.9585 O.3     1  UNL1       -0.4752
     23 C         143.0352  141.8686  166.7065 C.3     1  UNL1        0.2053
     24 C         143.4300  141.4410  165.3240 C.3     1  UNL1        0.0438
     25 C         143.3331  138.9478  166.0482 C.3     1  UNL1        0.0001
     26 C         143.4656  139.9835  164.9713 C.3     1  UNL1        0.0037
     27 C         143.7893  142.4709  164.2943 C.3     1  UNL1        0.0037
     28 C         144.0998  143.8765  164.7159 C.3     1  UNL1        0.0001
@<TRIPOS>BOND
     1    25    26    1
     2    26    24    1
     3    24    27    1
     4    27    28    1
     5    24    23    1
     6    23    22    1
     7    22     1    1
     8     1     2   ar
     9     2    17    1
    10    17    18   am
    11    17    19    2
    12     2     3   ar
    13     3     4   ar
    14     4     5   ar
    15     5     6   ar
    16     6     7   ar
    17     7     8   ar
    18     8    11    1
    19    11    12   ar
    20    12    13   ar
    21    13    14   ar
    22    14    15   ar
    23    15    16   ar
    24     8     9   ar
    25     9    10   ar
    26    10     1   ar
    27    10     5   ar
    28    16    11   ar
    29    18    20    1
    30    18    21    1
@<TRIPOS>MOLECULE
*****
 28 30 0 0 0
SMALL
GASTEIGER

@<TRIPOS>ATOM
      1 C         140.0193  141.3062  168.2786 C.ar    1  UNL1        0.1457
      2 C         139.5442  141.4456  169.6945 C.ar    1  UNL1        0.1061
      3 C         138.4822  140.5275  170.2231 C.ar    1  UNL1        0.1063
      4 N         137.8954  139.4701  169.3358 N.ar    1  UNL1       -0.2435
      5 C         138.3704  139.3307  167.9198 C.ar    1  UNL1        0.0842
      6 C         137.7835  138.2732  167.0325 C.ar    1  UNL1        0.0192
      7 C         138.2586  138.1339  165.6166 C.ar    1  UNL1        0.0016
      8 C         139.3205  139.0519  165.0880 C.ar    1  UNL1        0.0017
      9 C         139.9074  140.1094  165.9753 C.ar    1  UNL1        0.0046
     10 C         139.4324  140.2487  167.3912 C.ar    1  UNL1        0.0518
     11 C         139.7956  138.9125  163.6720 C.ar    1  UNL1        0.0192
     12 C         140.8576  137.9091  163.3326 C.ar    1  UNL1        0.0031
     13 C         141.3327  137.7697  161.9166 C.ar    1  UNL1        0.0207
     14 C         140.7457  138.6337  160.8401 C.ar    1  UNL1        0.0989
     15 N         139.6836  139.6371  161.1796 N.ar    1  UNL1       -0.2423
     16 C         139.2086  139.7765  162.5955 C.ar    1  UNL1        0.0988
     17 C         140.1311  142.5031  170.5819 C.2     1  UNL1        0.2472
     18 N         140.1632  143.9317  170.1259 N.am    1  UNL1       -0.3252
     19 O         140.6858  142.1319  171.9252 O.2     1  UNL1       -0.2702
     20 H         139.7992  144.1753  169.2442 H       1  UNL1        0.1453
     21 H         140.5484  144.6258  170.7083 H       1  UNL1        0.1453
     22 O         141.0812  142.2243  167.7500 O.3     1  UNL1       -0.4752
     23 C         142.5004  141.7493  167.6480 C.3     1  UNL1        0.2053
     24 C         142.8712  140.3825  168.1423 C.3     1  UNL1        0.0438
     25 C         143.3977  139.5857  165.7261 C.3     1  UNL1        0.0001
     26 C         143.1105  139.2707  167.1643 C.3     1  UNL1        0.0037
     27 C         143.0026  140.1275  169.6147 C.3     1  UNL1        0.0037
     28 C         142.4110  138.8875  170.2168 C.3     1  UNL1        0.0001
@<TRIPOS>BOND
     1    25    26    1
     2    26    24    1
     3    24    27    1
     4    27    28    1
     5    24    23    1
     6    23    22    1
     7    22     1    1
     8     1     2   ar
     9     2    17    1
    10    17    18   am
    11    17    19    2
    12     2     3   ar
    13     3     4   ar
    14     4     5   ar
    15     5     6   ar
    16     6     7   ar
    17     7     8   ar
    18     8    11    1
    19    11    12   ar
    20    12    13   ar
    21    13    14   ar
    22    14    15   ar
    23    15    16   ar
    24     8     9   ar
    25     9    10   ar
    26    10     1   ar
    27    10     5   ar
    28    16    11   ar
    29    18    20    1
    30    18    21    1
@<TRIPOS>MOLECULE
*****
 28 30 0 0 0
SMALL
GASTEIGER

@<TRIPOS>ATOM
      1 C         141.4644  139.0044  163.9074 C.ar    1  UNL1        0.1457
      2 C         141.0982  138.2387  162.6707 C.ar    1  UNL1        0.1061
      3 C         139.7579  137.5726  162.5703 C.ar    1  UNL1        0.1063
      4 N         138.7839  137.6722  163.7067 N.ar    1  UNL1       -0.2435
      5 C         139.1502  138.4380  164.9435 C.ar    1  UNL1        0.0842
      6 C         138.1762  138.5376  166.0799 C.ar    1  UNL1        0.0192
      7 C         138.5425  139.3033  167.3166 C.ar    1  UNL1        0.0016
      8 C         139.8827  139.9694  167.4169 C.ar    1  UNL1        0.0017
      9 C         140.8567  139.8697  166.2805 C.ar    1  UNL1        0.0046
     10 C         140.4904  139.1040  165.0438 C.ar    1  UNL1        0.0518
     11 C         140.2490  140.7351  168.6537 C.ar    1  UNL1        0.0192
     12 C         140.3197  142.2329  168.6151 C.ar    1  UNL1        0.0031
     13 C         140.6859  142.9987  169.8519 C.ar    1  UNL1        0.0207
     14 C         140.9815  142.2665  171.1272 C.ar    1  UNL1        0.0989
     15 N         140.9107  140.7686  171.1658 N.ar    1  UNL1       -0.2423
     16 C         140.5445  140.0030  169.9291 C.ar    1  UNL1        0.0988
     17 C         142.0722  138.1390  161.5342 C.2     1  UNL1        0.2472
     18 N         143.4793  137.6868  161.7900 N.am    1  UNL1       -0.3252
     19 O         141.6390  138.4915  160.1421 O.2     1  UNL1       -0.2702
     20 H         143.7636  137.4554  162.7037 H       1  UNL1        0.1453
     21 H         144.1186  137.6214  161.0441 H       1  UNL1        0.1453
     22 O         142.8047  139.6704  164.0077 O.3     1  UNL1       -0.4752
     23 C         142.9969  141.0547  163.4629 C.3     1  UNL1        0.2053
     24 C         142.4821  142.2392  164.2258 C.3     1  UNL1        0.0438
     25 C         143.3912  142.4008  166.6542 C.3     1  UNL1        0.0001
     26 C         143.3538  142.9118  165.2444 C.3     1  UNL1        0.0037
     27 C         141.0954  142.7510  163.9700 C.3     1  UNL1        0.0037
     28 C         140.5226  143.8313  164.8388 C.3     1  UNL1        0.0001
@<TRIPOS>BOND
     1    25    26    1
     2    26    24    1
     3    24    27    1
     4    27    28    1
     5    24    23    1
     6    23    22    1
     7    22     1    1
     8     1     2   ar
     9     2    17    1
    10    17    18   am
    11    17    19    2
    12     2     3   ar
    13     3     4   ar
    14     4     5   ar
    15     5     6   ar
    16     6     7   ar
    17     7     8   ar
    18     8    11    1
    19    11    12   ar
    20    12    13   ar
    21    13    14   ar
    22    14    15   ar
    23    15    16   ar
    24     8     9   ar
    25     9    10   ar
    26    10     1   ar
    27    10     5   ar
    28    16    11   ar
    29    18    20    1
    30    18    21    1
@<TRIPOS>MOLECULE
*****
 28 30 0 0 0
SMALL
GASTEIGER

@<TRIPOS>ATOM
      1 C         140.3516  142.5538  163.2266 C.ar    1  UNL1        0.1457
      2 C         140.3150  143.2751  161.9119 C.ar    1  UNL1        0.1061
      3 C         141.4846  144.1100  161.4817 C.ar    1  UNL1        0.1063
      4 N         142.6907  144.2236  162.3661 N.ar    1  UNL1       -0.2435
      5 C         142.7274  143.5023  163.6809 C.ar    1  UNL1        0.0842
      6 C         143.9335  143.6159  164.5653 C.ar    1  UNL1        0.0192
      7 C         143.9701  142.8947  165.8799 C.ar    1  UNL1        0.0016
      8 C         142.8006  142.0598  166.3102 C.ar    1  UNL1        0.0017
      9 C         141.5944  141.9462  165.4258 C.ar    1  UNL1        0.0046
     10 C         141.5578  142.6674  164.1111 C.ar    1  UNL1        0.0518
     11 C         142.8372  141.3385  167.6249 C.ar    1  UNL1        0.0192
     12 C         143.0436  142.1069  168.8965 C.ar    1  UNL1        0.0031
     13 C         143.0802  141.3856  170.2112 C.ar    1  UNL1        0.0207
     14 C         142.9105  139.8959  170.2543 C.ar    1  UNL1        0.0989
     15 N         142.7042  139.1274  168.9827 N.ar    1  UNL1       -0.2423
     16 C         142.6675  139.8487  167.6680 C.ar    1  UNL1        0.0988
     17 C         139.1088  143.1615  161.0275 C.2     1  UNL1        0.2472
     18 N         137.7382  143.3789  161.5968 N.am    1  UNL1       -0.3252
     19 O         139.2733  142.8305  159.5737 O.2     1  UNL1       -0.2702
     20 H         137.6302  143.5962  162.5509 H       1  UNL1        0.1453
     21 H         136.9465  143.3044  161.0163 H       1  UNL1        0.1453
     22 O         139.1821  141.7189  163.6569 O.3     1  UNL1       -0.4752
     23 C         139.1419  140.2566  163.3250 C.3     1  UNL1        0.2053
     24 C         139.0528  139.2402  164.4245 C.3     1  UNL1        0.0438
     25 C         139.0039  139.6014  166.9968 C.3     1  UNL1        0.0001
     26 C         138.2914  139.5558  165.6777 C.3     1  UNL1        0.0037
     27 C         139.7252  137.9081  164.2707 C.3     1  UNL1        0.0037
     28 C         141.1707  137.7507  164.6390 C.3     1  UNL1        0.0001
@<TRIPOS>BOND
     1    25    26    1
     2    26    24    1
     3    24    27    1
     4    27    28    1
     5    24    23    1
     6    23    22    1
     7    22     1    1
     8     1     2   ar
     9     2    17    1
    10    17    18   am
    11    17    19    2
    12     2     3   ar
    13     3     4   ar
    14     4     5   ar
    15     5     6   ar
    16     6     7   ar
    17     7     8   ar
    18     8    11    1
    19    11    12   ar
    20    12    13   ar
    21    13    14   ar
    22    14    15   ar
    23    15    16   ar
    24     8     9   ar
    25     9    10   ar
    26    10     1   ar
    27    10     5   ar
    28    16    11   ar
    29    18    20    1
    30    18    21    1
@<TRIPOS>MOLECULE
*****
 28 30 0 0 0
SMALL
GASTEIGER

@<TRIPOS>ATOM
      1 C         141.2431  140.4714  167.9005 C.ar    1  UNL1        0.1457
      2 C         141.3638  141.2717  169.1634 C.ar    1  UNL1        0.1061
      3 C         142.3379  142.4097  169.2401 C.ar    1  UNL1        0.1063
      4 N         143.1915  142.7475  168.0538 N.ar    1  UNL1       -0.2435
      5 C         143.0709  141.9473  166.7908 C.ar    1  UNL1        0.0842
      6 C         143.9244  142.2851  165.6045 C.ar    1  UNL1        0.0192
      7 C         143.8038  141.4848  164.3416 C.ar    1  UNL1        0.0016
      8 C         142.8296  140.3468  164.2649 C.ar    1  UNL1        0.0017
      9 C         141.9761  140.0090  165.4512 C.ar    1  UNL1        0.0046
     10 C         142.0967  140.8092  166.7141 C.ar    1  UNL1        0.0518
     11 C         142.7090  139.5465  163.0019 C.ar    1  UNL1        0.0192
     12 C         141.4727  139.6562  162.1597 C.ar    1  UNL1        0.0031
     13 C         141.3521  138.8560  160.8967 C.ar    1  UNL1        0.0207
     14 C         142.4679  137.9461  160.4760 C.ar    1  UNL1        0.0989
     15 N         143.7043  137.8364  161.3182 N.ar    1  UNL1       -0.2423
     16 C         143.8248  138.6366  162.5812 C.ar    1  UNL1        0.0988
     17 C         140.5102  140.9339  170.3498 C.2     1  UNL1        0.2472
     18 N         140.4022  139.5121  170.8155 N.am    1  UNL1       -0.3252
     19 O         139.7647  142.0179  171.0703 O.2     1  UNL1       -0.2702
     20 H         140.8915  138.8007  170.3426 H       1  UNL1        0.1453
     21 H         139.8420  139.2904  171.5942 H       1  UNL1        0.1453
     22 O         140.2690  139.3334  167.8239 O.3     1  UNL1       -0.4752
     23 C         138.8840  139.5659  167.2967 C.3     1  UNL1        0.2053
     24 C         138.5705  139.2764  165.8586 C.3     1  UNL1        0.0438
     25 C         139.0537  137.6379  163.9012 C.3     1  UNL1        0.0001
     26 C         138.6803  137.8753  165.3344 C.3     1  UNL1        0.0037
     27 C         138.1471  140.3881  164.9448 C.3     1  UNL1        0.0037
     28 C         138.7965  141.7360  165.0526 C.3     1  UNL1        0.0001
@<TRIPOS>BOND
     1    25    26    1
     2    26    24    1
     3    24    27    1
     4    27    28    1
     5    24    23    1
     6    23    22    1
     7    22     1    1
     8     1     2   ar
     9     2    17    1
    10    17    18   am
    11    17    19    2
    12     2     3   ar
    13     3     4   ar
    14     4     5   ar
    15     5     6   ar
    16     6     7   ar
    17     7     8   ar
    18     8    11    1
    19    11    12   ar
    20    12    13   ar
    21    13    14   ar
    22    14    15   ar
    23    15    16   ar
    24     8     9   ar
    25     9    10   ar
    26    10     1   ar
    27    10     5   ar
    28    16    11   ar
    29    18    20    1
    30    18    21    1
@<TRIPOS>MOLECULE
*****
 28 30 0 0 0
SMALL
GASTEIGER

@<TRIPOS>ATOM
      1 C         140.0621  143.5486  164.1350 C.ar    1  UNL1        0.1457
      2 C         140.4210  144.0196  162.7569 C.ar    1  UNL1        0.1061
      3 C         141.8594  144.0803  162.3359 C.ar    1  UNL1        0.1063
      4 N         142.9389  143.6700  163.2930 N.ar    1  UNL1       -0.2435
      5 C         142.5801  143.1989  164.6713 C.ar    1  UNL1        0.0842
      6 C         143.6596  142.7886  165.6284 C.ar    1  UNL1        0.0192
      7 C         143.3007  142.3176  167.0065 C.ar    1  UNL1        0.0016
      8 C         141.8623  142.2569  167.4275 C.ar    1  UNL1        0.0017
      9 C         140.7827  142.6673  166.4704 C.ar    1  UNL1        0.0046
     10 C         141.1416  143.1383  165.0922 C.ar    1  UNL1        0.0518
     11 C         141.5034  141.7859  168.8057 C.ar    1  UNL1        0.0192
     12 C         140.8062  140.4708  168.9910 C.ar    1  UNL1        0.0031
     13 C         140.4473  139.9998  170.3693 C.ar    1  UNL1        0.0207
     14 C         140.7857  140.8439  171.5621 C.ar    1  UNL1        0.0989
     15 N         141.4829  142.1591  171.3768 N.ar    1  UNL1       -0.2423
     16 C         141.8418  142.6300  169.9986 C.ar    1  UNL1        0.0988
     17 C         139.3414  144.4300  161.7996 C.2     1  UNL1        0.2472
     18 N         138.7621  143.4262  160.8474 N.am    1  UNL1       -0.3252
     19 O         138.8412  145.8441  161.7947 O.2     1  UNL1       -0.2702
     20 H         139.0904  142.4981  160.8506 H       1  UNL1        0.1453
     21 H         138.0536  143.6955  160.2191 H       1  UNL1        0.1453
     22 O         138.6236  143.4880  164.5560 O.3     1  UNL1       -0.4752
     23 C         137.7608  142.3428  164.1152 C.3     1  UNL1        0.2053
     24 C         138.2788  140.9377  164.1996 C.3     1  UNL1        0.0438
     25 C         139.4224  139.2263  165.7849 C.3     1  UNL1        0.0001
     26 C         138.3502  140.2431  165.5271 C.3     1  UNL1        0.0037
     27 C         138.7255  140.2270  162.9563 C.3     1  UNL1        0.0037
     28 C         140.1372  140.3780  162.4723 C.3     1  UNL1        0.0001
@<TRIPOS>BOND
     1    25    26    1
     2    26    24    1
     3    24    27    1
     4    27    28    1
     5    24    23    1
     6    23    22    1
     7    22     1    1
     8     1     2   ar
     9     2    17    1
    10    17    18   am
    11    17    19    2
    12     2     3   ar
    13     3     4   ar
    14     4     5   ar
    15     5     6   ar
    16     6     7   ar
    17     7     8   ar
    18     8    11    1
    19    11    12   ar
    20    12    13   ar
    21    13    14   ar
    22    14    15   ar
    23    15    16   ar
    24     8     9   ar
    25     9    10   ar
    26    10     1   ar
    27    10     5   ar
    28    16    11   ar
    29    18    20    1
    30    18    21    1
