@<TRIPOS>MOLECULE
*****
 35 38 0 0 0
SMALL
GASTEIGER

@<TRIPOS>ATOM
      1 C         138.9404  140.2265  164.3505 C.ar    1  UNL1        0.0006
      2 C         138.0426  139.7803  165.4662 C.ar    1  UNL1       -0.0001
      3 C         138.1483  138.3828  166.0007 C.ar    1  UNL1        0.0031
      4 C         139.1519  137.4315  165.4195 C.ar    1  UNL1        0.0366
      5 C         140.0497  137.8776  164.3038 C.ar    1  UNL1        0.1346
      6 C         139.9440  139.2751  163.7693 C.ar    1  UNL1        0.0136
      7 C         140.8419  139.7214  162.6536 C.3     1  UNL1        0.0528
      8 C         141.8455  138.7700  162.0724 C.3     1  UNL1        0.1200
      9 C         141.9512  137.3724  162.6070 C.3     1  UNL1        0.2250
     10 O         141.0533  136.9263  163.7226 O.3     1  UNL1       -0.4740
     11 C         138.6234  144.4192  162.7469 C.ar    1  UNL1        0.2533
     12 N         137.8382  143.3112  162.1098 N.ar    1  UNL1       -0.2082
     13 C         137.9439  141.9136  162.6444 C.ar    1  UNL1        0.1021
     14 C         138.8348  141.6241  163.8159 C.ar    1  UNL1        0.0214
     15 C         139.6199  142.7321  164.4530 C.ar    1  UNL1        0.0360
     16 C         139.5143  144.1296  163.9185 C.ar    1  UNL1        0.1930
     17 F         140.2994  145.2376  164.5555 F       1  UNL1       -0.1992
     18 C         139.6494  146.4053  161.4231 C.3     1  UNL1        0.2543
     19 O         138.5177  145.8167  162.2124 O.3     1  UNL1       -0.4546
     20 N         142.7433  139.2161  160.9567 N.am    1  UNL1       -0.2986
     21 C         142.2835  139.1036  159.5334 C.2     1  UNL1        0.2474
     22 O         140.9259  138.5450  159.2257 O.2     1  UNL1       -0.2701
     23 H         143.6344  139.5828  161.1587 H       1  UNL1        0.1498
     24 C         143.1815  139.5498  158.4177 C.ar    1  UNL1        0.0727
     25 C         143.9531  140.8300  158.5424 C.ar    1  UNL1        0.0109
     26 C         144.8510  141.2762  157.4267 C.ar    1  UNL1        0.0579
     27 C         144.9772  140.4422  156.1864 C.ar    1  UNL1        0.2251
     28 N         144.2056  139.1620  156.0618 N.ar    1  UNL1       -0.2100
     29 C         143.3077  138.7158  157.1774 C.ar    1  UNL1        0.1065
     30 O         145.8752  140.8884  155.0707 O.3     1  UNL1       -0.4509
     31 C         146.7259  142.1126  155.2367 C.3     1  UNL1        0.3095
     32 C         148.1696  141.9764  155.6200 C.3     1  UNL1        0.4381
     33 F         149.6134  141.8401  156.0034 F       1  UNL1       -0.1663
     34 F         147.8594  142.5220  156.9823 F       1  UNL1       -0.1663
     35 F         148.4799  141.4307  154.2577 F       1  UNL1       -0.1663
@<TRIPOS>BOND
     1    18    19    1
     2    19    11    1
     3    11    12   ar
     4    12    13   ar
     5    13    14   ar
     6    14     1    1
     7     1     2   ar
     8     2     3   ar
     9     3     4   ar
    10     4     5   ar
    11     5     6   ar
    12     6     7    1
    13     7     8    1
    14     8    20    1
    15    20    21   am
    16    21    22    2
    17    21    24    1
    18    24    25   ar
    19    25    26   ar
    20    26    27   ar
    21    27    30    1
    22    30    31    1
    23    31    32    1
    24    32    33    1
    25    32    34    1
    26    32    35    1
    27    27    28   ar
    28    28    29   ar
    29     8     9    1
    30     9    10    1
    31    14    15   ar
    32    15    16   ar
    33    16    17    1
    34    16    11   ar
    35     6     1   ar
    36    29    24   ar
    37    10     5    1
    38    20    23    1
@<TRIPOS>MOLECULE
*****
 35 38 0 0 0
SMALL
GASTEIGER

@<TRIPOS>ATOM
      1 C         140.9802  142.2973  166.4309 C.ar    1  UNL1        0.0006
      2 C         140.7711  142.6876  167.8640 C.ar    1  UNL1       -0.0001
      3 C         141.2238  141.7738  168.9639 C.ar    1  UNL1        0.0031
      4 C         141.8858  140.4696  168.6308 C.ar    1  UNL1        0.0366
      5 C         142.0949  140.0793  167.1977 C.ar    1  UNL1        0.1346
      6 C         141.6422  140.9931  166.0977 C.ar    1  UNL1        0.0136
      7 C         141.8513  140.6028  164.6645 C.3     1  UNL1        0.0528
      8 C         142.5132  139.2986  164.3314 C.3     1  UNL1        0.1200
      9 C         142.9660  138.3848  165.4314 C.3     1  UNL1        0.2250
     10 O         142.7569  138.7751  166.8645 O.3     1  UNL1       -0.4740
     11 C         139.6219  145.0387  163.1309 C.ar    1  UNL1        0.2533
     12 N         141.0783  144.9469  163.4779 N.ar    1  UNL1       -0.2082
     13 C         141.5311  144.0331  164.5779 C.ar    1  UNL1        0.1021
     14 C         140.5275  143.2111  165.3309 C.ar    1  UNL1        0.0214
     15 C         139.0710  143.3029  164.9839 C.ar    1  UNL1        0.0360
     16 C         138.6183  144.2166  163.8839 C.ar    1  UNL1        0.1930
     17 F         137.1618  144.3084  163.5369 F       1  UNL1       -0.1992
     18 C         139.8830  145.9493  160.7117 C.3     1  UNL1        0.2543
     19 O         139.1691  145.9525  162.0309 O.3     1  UNL1       -0.4546
     20 N         142.7224  138.9082  162.8983 N.am    1  UNL1       -0.2986
     21 C         141.5433  138.7452  161.9856 C.2     1  UNL1        0.2474
     22 O         140.1549  138.9726  162.5059 O.2     1  UNL1       -0.2701
     23 H         143.6336  138.7590  162.5567 H       1  UNL1        0.1498
     24 C         141.7525  138.3549  160.5524 C.ar    1  UNL1        0.0727
     25 C         140.7224  138.7082  159.5208 C.ar    1  UNL1        0.0109
     26 C         140.9316  138.3179  158.0877 C.ar    1  UNL1        0.0579
     27 C         142.1708  137.5742  157.6862 C.ar    1  UNL1        0.2251
     28 N         143.2008  137.2208  158.7178 N.ar    1  UNL1       -0.2100
     29 C         142.9917  137.6112  160.1509 C.ar    1  UNL1        0.1065
     30 O         142.3800  137.1838  156.2530 O.3     1  UNL1       -0.4509
     31 C         143.6459  136.4925  155.8411 C.3     1  UNL1        0.3095
     32 C         143.6201  135.0397  155.4688 C.3     1  UNL1        0.4381
     33 F         143.5943  133.5869  155.0965 F       1  UNL1       -0.1663
     34 F         144.1535  134.6828  156.8246 F       1  UNL1       -0.1663
     35 F         143.0868  135.3966  154.1131 F       1  UNL1       -0.1663
@<TRIPOS>BOND
     1    18    19    1
     2    19    11    1
     3    11    12   ar
     4    12    13   ar
     5    13    14   ar
     6    14     1    1
     7     1     2   ar
     8     2     3   ar
     9     3     4   ar
    10     4     5   ar
    11     5     6   ar
    12     6     7    1
    13     7     8    1
    14     8    20    1
    15    20    21   am
    16    21    22    2
    17    21    24    1
    18    24    25   ar
    19    25    26   ar
    20    26    27   ar
    21    27    30    1
    22    30    31    1
    23    31    32    1
    24    32    33    1
    25    32    34    1
    26    32    35    1
    27    27    28   ar
    28    28    29   ar
    29     8     9    1
    30     9    10    1
    31    14    15   ar
    32    15    16   ar
    33    16    17    1
    34    16    11   ar
    35     6     1   ar
    36    29    24   ar
    37    10     5    1
    38    20    23    1
@<TRIPOS>MOLECULE
*****
 35 38 0 0 0
SMALL
GASTEIGER

@<TRIPOS>ATOM
      1 C         139.8917  142.2866  164.1315 C.ar    1  UNL1        0.0006
      2 C         139.1970  143.1606  165.1332 C.ar    1  UNL1       -0.0001
      3 C         138.0891  144.0711  164.6933 C.ar    1  UNL1        0.0031
      4 C         137.6759  144.1075  163.2518 C.ar    1  UNL1        0.0366
      5 C         138.3706  143.2335  162.2501 C.ar    1  UNL1        0.1346
      6 C         139.4785  142.3230  162.6900 C.ar    1  UNL1        0.0136
      7 C         140.1734  141.4489  161.6883 C.3     1  UNL1        0.0528
      8 C         139.7602  141.4854  160.2468 C.3     1  UNL1        0.1200
      9 C         138.6522  142.3959  159.8070 C.3     1  UNL1        0.2250
     10 O         137.9575  143.2699  160.8086 O.3     1  UNL1       -0.4740
     11 C         143.2156  139.5551  165.4510 C.ar    1  UNL1        0.2533
     12 N         141.7875  139.1150  165.5799 N.ar    1  UNL1       -0.2082
     13 C         140.6795  140.0255  165.1400 C.ar    1  UNL1        0.1021
     14 C         140.9997  141.3761  164.5713 C.ar    1  UNL1        0.0214
     15 C         142.4279  141.8161  164.4425 C.ar    1  UNL1        0.0360
     16 C         143.5358  140.9057  164.8823 C.ar    1  UNL1        0.1930
     17 F         144.9640  141.3458  164.7534 F       1  UNL1       -0.1992
     18 C         144.0636  137.5948  166.9301 C.3     1  UNL1        0.2543
     19 O         144.3236  138.6446  165.8908 O.3     1  UNL1       -0.4546
     20 N         140.4549  140.6113  159.2452 N.am    1  UNL1       -0.2986
     21 C         140.1682  139.1395  159.2075 C.2     1  UNL1        0.2474
     22 O         139.1868  138.5416  160.1715 O.2     1  UNL1       -0.2701
     23 H         141.0991  141.0037  158.6124 H       1  UNL1        0.1498
     24 C         140.8630  138.2654  158.2058 C.ar    1  UNL1        0.0727
     25 C         140.0899  137.6683  157.0675 C.ar    1  UNL1        0.0109
     26 C         140.7846  136.7943  156.0658 C.ar    1  UNL1        0.0579
     27 C         142.2525  136.5174  156.2024 C.ar    1  UNL1        0.2251
     28 N         143.0256  137.1146  157.3407 N.ar    1  UNL1       -0.2100
     29 C         142.3309  137.9886  158.3424 C.ar    1  UNL1        0.1065
     30 O         142.9473  135.6434  155.2007 O.3     1  UNL1       -0.4509
     31 C         143.7439  134.4595  155.6631 C.3     1  UNL1        0.3095
     32 C         143.0430  133.2508  156.2089 C.3     1  UNL1        0.4381
     33 F         142.3422  132.0422  156.7546 F       1  UNL1       -0.1663
     34 F         143.3084  133.7278  157.6060 F       1  UNL1       -0.1663
     35 F         142.7777  132.7738  154.8117 F       1  UNL1       -0.1663
@<TRIPOS>BOND
     1    18    19    1
     2    19    11    1
     3    11    12   ar
     4    12    13   ar
     5    13    14   ar
     6    14     1    1
     7     1     2   ar
     8     2     3   ar
     9     3     4   ar
    10     4     5   ar
    11     5     6   ar
    12     6     7    1
    13     7     8    1
    14     8    20    1
    15    20    21   am
    16    21    22    2
    17    21    24    1
    18    24    25   ar
    19    25    26   ar
    20    26    27   ar
    21    27    30    1
    22    30    31    1
    23    31    32    1
    24    32    33    1
    25    32    34    1
    26    32    35    1
    27    27    28   ar
    28    28    29   ar
    29     8     9    1
    30     9    10    1
    31    14    15   ar
    32    15    16   ar
    33    16    17    1
    34    16    11   ar
    35     6     1   ar
    36    29    24   ar
    37    10     5    1
    38    20    23    1
@<TRIPOS>MOLECULE
*****
 35 38 0 0 0
SMALL
GASTEIGER

@<TRIPOS>ATOM
      1 C         141.5973  140.4312  158.7532 C.ar    1  UNL1        0.0006
      2 C         141.3699  139.9458  157.3523 C.ar    1  UNL1       -0.0001
      3 C         141.8620  138.5905  156.9390 C.ar    1  UNL1        0.0031
      4 C         142.5816  137.7205  157.9266 C.ar    1  UNL1        0.0366
      5 C         142.8089  138.2059  159.3276 C.ar    1  UNL1        0.1346
      6 C         142.3168  139.5612  159.7408 C.ar    1  UNL1        0.0136
      7 C         142.5442  140.0466  161.1418 C.3     1  UNL1        0.0528
      8 C         143.2637  139.1767  162.1295 C.3     1  UNL1        0.1200
      9 C         143.7559  137.8213  161.7161 C.3     1  UNL1        0.2250
     10 O         143.5285  137.3359  160.3152 O.3     1  UNL1       -0.4740
     11 C         140.1208  144.4972  159.9933 C.ar    1  UNL1        0.2533
     12 N         141.3443  144.3734  159.1344 N.ar    1  UNL1       -0.2082
     13 C         141.8365  143.0180  158.7210 C.ar    1  UNL1        0.1021
     14 C         141.1051  141.7865  159.1665 C.ar    1  UNL1        0.0214
     15 C         139.8816  141.9104  160.0254 C.ar    1  UNL1        0.0360
     16 C         139.3894  143.2656  160.4388 C.ar    1  UNL1        0.1930
     17 F         138.1659  143.3895  161.2977 F       1  UNL1       -0.1992
     18 C         139.7760  146.3019  161.8301 C.3     1  UNL1        0.2543
     19 O         139.6286  145.8525  160.4066 O.3     1  UNL1       -0.4546
     20 N         143.4911  139.6620  163.5304 N.am    1  UNL1       -0.2986
     21 C         142.3337  139.7947  164.4753 C.2     1  UNL1        0.2474
     22 O         140.9490  139.4421  164.0193 O.2     1  UNL1       -0.2701
     23 H         144.4000  139.8935  163.8297 H       1  UNL1        0.1498
     24 C         142.5612  140.2801  165.8764 C.ar    1  UNL1        0.0727
     25 C         142.4703  139.3213  167.0263 C.ar    1  UNL1        0.0109
     26 C         142.6978  139.8066  168.4272 C.ar    1  UNL1        0.0579
     27 C         143.0161  141.2508  168.6782 C.ar    1  UNL1        0.2251
     28 N         143.1069  142.2096  167.5283 N.ar    1  UNL1       -0.2100
     29 C         142.8795  141.7243  166.1273 C.ar    1  UNL1        0.1065
     30 O         143.2435  141.7362  170.0792 O.3     1  UNL1       -0.4509
     31 C         142.2700  142.6864  170.7111 C.3     1  UNL1        0.3095
     32 C         140.7987  142.5243  170.4685 C.3     1  UNL1        0.4381
     33 F         139.3274  142.3621  170.2259 F       1  UNL1       -0.1663
     34 F         140.7931  141.2931  171.3252 F       1  UNL1       -0.1663
     35 F         140.8042  143.7555  169.6117 F       1  UNL1       -0.1663
@<TRIPOS>BOND
     1    18    19    1
     2    19    11    1
     3    11    12   ar
     4    12    13   ar
     5    13    14   ar
     6    14     1    1
     7     1     2   ar
     8     2     3   ar
     9     3     4   ar
    10     4     5   ar
    11     5     6   ar
    12     6     7    1
    13     7     8    1
    14     8    20    1
    15    20    21   am
    16    21    22    2
    17    21    24    1
    18    24    25   ar
    19    25    26   ar
    20    26    27   ar
    21    27    30    1
    22    30    31    1
    23    31    32    1
    24    32    33    1
    25    32    34    1
    26    32    35    1
    27    27    28   ar
    28    28    29   ar
    29     8     9    1
    30     9    10    1
    31    14    15   ar
    32    15    16   ar
    33    16    17    1
    34    16    11   ar
    35     6     1   ar
    36    29    24   ar
    37    10     5    1
    38    20    23    1
@<TRIPOS>MOLECULE
*****
 35 38 0 0 0
SMALL
GASTEIGER

@<TRIPOS>ATOM
      1 C         142.6308  134.7483  155.2507 C.ar    1  UNL1        0.0006
      2 C         142.3153  134.6132  153.7906 C.ar    1  UNL1       -0.0001
      3 C         141.8642  135.8100  153.0069 C.ar    1  UNL1        0.0031
      4 C         141.7286  137.1419  153.6834 C.ar    1  UNL1        0.0366
      5 C         142.0441  137.2770  155.1436 C.ar    1  UNL1        0.1346
      6 C         142.4952  136.0802  155.9273 C.ar    1  UNL1        0.0136
      7 C         142.8107  136.2153  157.3875 C.3     1  UNL1        0.0528
      8 C         142.6751  137.5472  158.0640 C.3     1  UNL1        0.1200
      9 C         142.2240  138.7440  157.2803 C.3     1  UNL1        0.2250
     10 O         141.9085  138.6089  155.8201 O.3     1  UNL1       -0.4740
     11 C         143.9841  131.1579  157.6020 C.ar    1  UNL1        0.2533
     12 N         142.7044  131.1043  156.8213 N.ar    1  UNL1       -0.2082
     13 C         142.2533  132.3012  156.0375 C.ar    1  UNL1        0.1021
     14 C         143.0819  133.5515  156.0345 C.ar    1  UNL1        0.0214
     15 C         144.3616  133.6051  156.8152 C.ar    1  UNL1        0.0360
     16 C         144.8127  132.4084  157.5989 C.ar    1  UNL1        0.1930
     17 F         146.0924  132.4620  158.3797 F       1  UNL1       -0.1992
     18 C         144.7304  128.6707  157.6805 C.3     1  UNL1        0.2543
     19 O         144.4352  129.9612  158.3857 O.3     1  UNL1       -0.4546
     20 N         142.9906  137.6823  159.5242 N.am    1  UNL1       -0.2986
     21 C         141.9043  138.0350  160.4967 C.2     1  UNL1        0.2474
     22 O         140.5027  138.2525  160.0090 O.2     1  UNL1       -0.2701
     23 H         143.9106  137.5395  159.8443 H       1  UNL1        0.1498
     24 C         142.2199  138.1701  161.9570 C.ar    1  UNL1        0.0727
     25 C         141.2598  137.6459  162.9833 C.ar    1  UNL1        0.0109
     26 C         141.5753  137.7810  164.4435 C.ar    1  UNL1        0.0579
     27 C         142.8508  138.4402  164.8773 C.ar    1  UNL1        0.2251
     28 N         143.8109  138.9644  163.8509 N.ar    1  UNL1       -0.2100
     29 C         143.4955  138.8294  162.3908 C.ar    1  UNL1        0.1065
     30 O         143.1664  138.5754  166.3376 O.3     1  UNL1       -0.4509
     31 C         142.7452  139.8057  167.0852 C.3     1  UNL1        0.3095
     32 C         141.8054  139.6914  168.2486 C.3     1  UNL1        0.4381
     33 F         140.8656  139.5770  169.4121 F       1  UNL1       -0.1663
     34 F         140.6580  139.4957  167.3026 F       1  UNL1       -0.1663
     35 F         142.9528  139.8870  169.1947 F       1  UNL1       -0.1663
@<TRIPOS>BOND
     1    18    19    1
     2    19    11    1
     3    11    12   ar
     4    12    13   ar
     5    13    14   ar
     6    14     1    1
     7     1     2   ar
     8     2     3   ar
     9     3     4   ar
    10     4     5   ar
    11     5     6   ar
    12     6     7    1
    13     7     8    1
    14     8    20    1
    15    20    21   am
    16    21    22    2
    17    21    24    1
    18    24    25   ar
    19    25    26   ar
    20    26    27   ar
    21    27    30    1
    22    30    31    1
    23    31    32    1
    24    32    33    1
    25    32    34    1
    26    32    35    1
    27    27    28   ar
    28    28    29   ar
    29     8     9    1
    30     9    10    1
    31    14    15   ar
    32    15    16   ar
    33    16    17    1
    34    16    11   ar
    35     6     1   ar
    36    29    24   ar
    37    10     5    1
    38    20    23    1
@<TRIPOS>MOLECULE
*****
 35 38 0 0 0
SMALL
GASTEIGER

@<TRIPOS>ATOM
      1 C         141.1197  142.9287  157.9818 C.ar    1  UNL1        0.0006
      2 C         141.0103  143.6163  156.6532 C.ar    1  UNL1       -0.0001
      3 C         140.5371  145.0378  156.5811 C.ar    1  UNL1        0.0031
      4 C         140.1733  145.7718  157.8377 C.ar    1  UNL1        0.0366
      5 C         140.2827  145.0843  159.1663 C.ar    1  UNL1        0.1346
      6 C         140.7559  143.6627  159.2383 C.ar    1  UNL1        0.0136
      7 C         140.8653  142.9751  160.5670 C.3     1  UNL1        0.0528
      8 C         140.5015  143.7091  161.8235 C.3     1  UNL1        0.1200
      9 C         140.0283  145.1307  161.7514 C.3     1  UNL1        0.2250
     10 O         139.9189  145.8183  160.4228 O.3     1  UNL1       -0.4740
     11 C         142.5393  138.6639  158.1981 C.ar    1  UNL1        0.2533
     12 N         143.5346  139.7860  158.1871 N.ar    1  UNL1       -0.2082
     13 C         143.0614  141.2076  158.1149 C.ar    1  UNL1        0.1021
     14 C         141.5929  141.5071  158.0539 C.ar    1  UNL1        0.0214
     15 C         140.5976  140.3850  158.0650 C.ar    1  UNL1        0.0360
     16 C         141.0707  138.9634  158.1371 C.ar    1  UNL1        0.1930
     17 F         140.0753  137.8413  158.1482 F       1  UNL1       -0.1992
     18 C         142.9010  136.3529  157.0676 C.3     1  UNL1        0.2543
     19 O         143.0124  137.2423  158.2703 O.3     1  UNL1       -0.4546
     20 N         140.6109  143.0215  163.1522 N.am    1  UNL1       -0.2986
     21 C         139.3832  142.4707  163.8149 C.2     1  UNL1        0.2474
     22 O         138.0461  142.6074  163.1491 O.2     1  UNL1       -0.2701
     23 H         141.4886  142.9318  163.5892 H       1  UNL1        0.1498
     24 C         139.4927  141.7831  165.1436 C.ar    1  UNL1        0.0727
     25 C         140.2520  142.4312  166.2632 C.ar    1  UNL1        0.0109
     26 C         140.3615  141.7437  167.5918 C.ar    1  UNL1        0.0579
     27 C         139.7117  140.4081  167.8009 C.ar    1  UNL1        0.2251
     28 N         138.9523  139.7600  166.6813 N.ar    1  UNL1       -0.2100
     29 C         138.8429  140.4475  165.3527 C.ar    1  UNL1        0.1065
     30 O         139.8211  139.7205  169.1296 O.3     1  UNL1       -0.4509
     31 C         140.4762  140.4193  170.2839 C.3     1  UNL1        0.3095
     32 C         141.9254  140.1750  170.5840 C.3     1  UNL1        0.4381
     33 F         143.3746  139.9308  170.8841 F       1  UNL1       -0.1663
     34 F         141.8738  138.9002  169.7954 F       1  UNL1       -0.1663
     35 F         141.9770  141.4499  171.3727 F       1  UNL1       -0.1663
@<TRIPOS>BOND
     1    18    19    1
     2    19    11    1
     3    11    12   ar
     4    12    13   ar
     5    13    14   ar
     6    14     1    1
     7     1     2   ar
     8     2     3   ar
     9     3     4   ar
    10     4     5   ar
    11     5     6   ar
    12     6     7    1
    13     7     8    1
    14     8    20    1
    15    20    21   am
    16    21    22    2
    17    21    24    1
    18    24    25   ar
    19    25    26   ar
    20    26    27   ar
    21    27    30    1
    22    30    31    1
    23    31    32    1
    24    32    33    1
    25    32    34    1
    26    32    35    1
    27    27    28   ar
    28    28    29   ar
    29     8     9    1
    30     9    10    1
    31    14    15   ar
    32    15    16   ar
    33    16    17    1
    34    16    11   ar
    35     6     1   ar
    36    29    24   ar
    37    10     5    1
    38    20    23    1
@<TRIPOS>MOLECULE
*****
 35 38 0 0 0
SMALL
GASTEIGER

@<TRIPOS>ATOM
      1 C         141.6454  140.2547  166.8827 C.ar    1  UNL1        0.0006
      2 C         141.6056  139.8636  168.3302 C.ar    1  UNL1       -0.0001
      3 C         142.4469  140.6006  169.3296 C.ar    1  UNL1        0.0031
      4 C         143.3281  141.7287  168.8815 C.ar    1  UNL1        0.0366
      5 C         143.3679  142.1199  167.4340 C.ar    1  UNL1        0.1346
      6 C         142.5266  141.3829  166.4346 C.ar    1  UNL1        0.0136
      7 C         142.5664  141.7740  164.9870 C.3     1  UNL1        0.0528
      8 C         143.4475  142.9022  164.5389 C.3     1  UNL1        0.1200
      9 C         144.2889  143.6392  165.5384 C.3     1  UNL1        0.2250
     10 O         144.2491  143.2480  166.9859 O.3     1  UNL1       -0.4740
     11 C         139.1213  138.0437  163.8842 C.ar    1  UNL1        0.2533
     12 N         138.5512  139.2174  164.6241 N.ar    1  UNL1       -0.2082
     13 C         139.3926  139.9544  165.6237 C.ar    1  UNL1        0.1021
     14 C         140.8040  139.5177  165.8832 C.ar    1  UNL1        0.0214
     15 C         141.3740  138.3441  165.1432 C.ar    1  UNL1        0.0360
     16 C         140.5327  137.6071  164.1437 C.ar    1  UNL1        0.1930
     17 F         141.1027  136.4334  163.4037 F       1  UNL1       -0.1992
     18 C         137.6970  138.0371  161.7114 C.3     1  UNL1        0.2543
     19 O         138.2800  137.3067  162.8847 O.3     1  UNL1       -0.4546
     20 N         143.4874  143.2933  163.0914 N.am    1  UNL1       -0.2986
     21 C         142.2087  143.5093  162.3374 C.2     1  UNL1        0.2474
     22 O         140.8903  143.3341  163.0309 O.2     1  UNL1       -0.2701
     23 H         144.3527  143.4084  162.6362 H       1  UNL1        0.1498
     24 C         142.2486  143.9005  160.8898 C.ar    1  UNL1        0.0727
     25 C         143.1018  143.1284  159.9275 C.ar    1  UNL1        0.0109
     26 C         143.1417  143.5195  158.4799 C.ar    1  UNL1        0.0579
     27 C         142.3284  144.6827  157.9947 C.ar    1  UNL1        0.2251
     28 N         141.4752  145.4548  158.9570 N.ar    1  UNL1       -0.2100
     29 C         141.4353  145.0637  160.4045 C.ar    1  UNL1        0.1065
     30 O         142.3683  145.0739  156.5471 O.3     1  UNL1       -0.4509
     31 C         141.0927  145.1922  155.7668 C.3     1  UNL1        0.3095
     32 C         140.6697  146.5227  155.2183 C.3     1  UNL1        0.4381
     33 F         140.2467  147.8531  154.6698 F       1  UNL1       -0.1663
     34 F         141.3350  146.1965  153.9141 F       1  UNL1       -0.1663
     35 F         140.0044  146.8488  156.5225 F       1  UNL1       -0.1663
@<TRIPOS>BOND
     1    18    19    1
     2    19    11    1
     3    11    12   ar
     4    12    13   ar
     5    13    14   ar
     6    14     1    1
     7     1     2   ar
     8     2     3   ar
     9     3     4   ar
    10     4     5   ar
    11     5     6   ar
    12     6     7    1
    13     7     8    1
    14     8    20    1
    15    20    21   am
    16    21    22    2
    17    21    24    1
    18    24    25   ar
    19    25    26   ar
    20    26    27   ar
    21    27    30    1
    22    30    31    1
    23    31    32    1
    24    32    33    1
    25    32    34    1
    26    32    35    1
    27    27    28   ar
    28    28    29   ar
    29     8     9    1
    30     9    10    1
    31    14    15   ar
    32    15    16   ar
    33    16    17    1
    34    16    11   ar
    35     6     1   ar
    36    29    24   ar
    37    10     5    1
    38    20    23    1
@<TRIPOS>MOLECULE
*****
 35 38 0 0 0
SMALL
GASTEIGER

@<TRIPOS>ATOM
      1 C         144.2786  139.0112  155.2976 C.ar    1  UNL1        0.0006
      2 C         145.1893  139.4264  154.1805 C.ar    1  UNL1       -0.0001
      3 C         145.9605  140.7091  154.2789 C.ar    1  UNL1        0.0031
      4 C         145.8209  141.5767  155.4946 C.ar    1  UNL1        0.0366
      5 C         144.9102  141.1615  156.6118 C.ar    1  UNL1        0.1346
      6 C         144.1390  139.8787  156.5133 C.ar    1  UNL1        0.0136
      7 C         143.2282  139.4635  157.6305 C.3     1  UNL1        0.0528
      8 C         143.0887  140.3311  158.8462 C.3     1  UNL1        0.1200
      9 C         143.8599  141.6139  158.9446 C.3     1  UNL1        0.2250
     10 O         144.7706  142.0291  157.8275 O.3     1  UNL1       -0.4740
     11 C         141.9649  135.1627  155.0023 C.ar    1  UNL1        0.2533
     12 N         141.3048  136.4634  154.6525 N.ar    1  UNL1       -0.2082
     13 C         142.0760  137.7463  154.7510 C.ar    1  UNL1        0.1021
     14 C         143.5073  137.7283  155.1992 C.ar    1  UNL1        0.0214
     15 C         144.1675  136.4276  155.5490 C.ar    1  UNL1        0.0360
     16 C         143.3963  135.1449  155.4506 C.ar    1  UNL1        0.1930
     17 F         144.0565  133.8442  155.8004 F       1  UNL1       -0.1992
     18 C         141.4705  132.9227  153.7827 C.3     1  UNL1        0.2543
     19 O         141.1938  133.8800  154.9039 O.3     1  UNL1       -0.4546
     20 N         142.1779  139.9159  159.9634 N.am    1  UNL1       -0.2986
     21 C         142.6326  138.8914  160.9602 C.2     1  UNL1        0.2474
     22 O         143.9979  138.2822  160.8400 O.2     1  UNL1       -0.2701
     23 H         141.2818  140.3158  160.0423 H       1  UNL1        0.1498
     24 C         141.7217  138.4762  162.0775 C.ar    1  UNL1        0.0727
     25 C         140.2588  138.2726  161.8161 C.ar    1  UNL1        0.0109
     26 C         139.3480  137.8574  162.9332 C.ar    1  UNL1        0.0579
     27 C         139.9001  137.6459  164.3117 C.ar    1  UNL1        0.2251
     28 N         141.3631  137.8496  164.5731 N.ar    1  UNL1       -0.2100
     29 C         142.2739  138.2648  163.4560 C.ar    1  UNL1        0.1065
     30 O         138.9893  137.2308  165.4289 O.3     1  UNL1       -0.4509
     31 C         138.1936  138.2634  166.1709 C.3     1  UNL1        0.3095
     32 C         138.6478  139.6928  166.1848 C.3     1  UNL1        0.4381
     33 F         139.1020  141.1223  166.1988 F       1  UNL1       -0.1663
     34 F         137.7150  140.0003  165.0512 F       1  UNL1       -0.1663
     35 F         139.5806  139.3854  167.3185 F       1  UNL1       -0.1663
@<TRIPOS>BOND
     1    18    19    1
     2    19    11    1
     3    11    12   ar
     4    12    13   ar
     5    13    14   ar
     6    14     1    1
     7     1     2   ar
     8     2     3   ar
     9     3     4   ar
    10     4     5   ar
    11     5     6   ar
    12     6     7    1
    13     7     8    1
    14     8    20    1
    15    20    21   am
    16    21    22    2
    17    21    24    1
    18    24    25   ar
    19    25    26   ar
    20    26    27   ar
    21    27    30    1
    22    30    31    1
    23    31    32    1
    24    32    33    1
    25    32    34    1
    26    32    35    1
    27    27    28   ar
    28    28    29   ar
    29     8     9    1
    30     9    10    1
    31    14    15   ar
    32    15    16   ar
    33    16    17    1
    34    16    11   ar
    35     6     1   ar
    36    29    24   ar
    37    10     5    1
    38    20    23    1
@<TRIPOS>MOLECULE
*****
 35 38 0 0 0
SMALL
GASTEIGER

@<TRIPOS>ATOM
      1 C         141.2045  142.7361  157.4382 C.ar    1  UNL1        0.0006
      2 C         141.1502  143.3696  156.0797 C.ar    1  UNL1       -0.0001
      3 C         140.6927  144.7905  155.9325 C.ar    1  UNL1        0.0031
      4 C         140.2895  145.5779  157.1439 C.ar    1  UNL1        0.0366
      5 C         140.3439  144.9444  158.5024 C.ar    1  UNL1        0.1346
      6 C         140.8014  143.5235  158.6496 C.ar    1  UNL1        0.0136
      7 C         140.8558  142.8900  160.0082 C.3     1  UNL1        0.0528
      8 C         140.4526  143.6774  161.2196 C.3     1  UNL1        0.1200
      9 C         139.9951  145.0984  161.0724 C.3     1  UNL1        0.2250
     10 O         139.9407  145.7319  159.7138 O.3     1  UNL1       -0.4740
     11 C         142.5770  138.4733  157.8799 C.ar    1  UNL1        0.2533
     12 N         143.5811  139.5876  157.8735 N.ar    1  UNL1       -0.2082
     13 C         143.1236  141.0086  157.7263 C.ar    1  UNL1        0.1021
     14 C         141.6621  141.3151  157.5855 C.ar    1  UNL1        0.0214
     15 C         140.6580  140.2008  157.5919 C.ar    1  UNL1        0.0360
     16 C         141.1154  138.7799  157.7391 C.ar    1  UNL1        0.1930
     17 F         140.1113  137.6655  157.7455 F       1  UNL1       -0.1992
     18 C         142.9650  136.1170  156.8566 C.3     1  UNL1        0.2543
     19 O         143.0345  137.0524  158.0271 O.3     1  UNL1       -0.4546
     20 N         140.5070  143.0440  162.5782 N.am    1  UNL1       -0.2986
     21 C         141.6675  143.3187  163.4879 C.2     1  UNL1        0.2474
     22 O         142.7737  144.2270  163.0391 O.2     1  UNL1       -0.2701
     23 H         139.7810  142.4478  162.8727 H       1  UNL1        0.1498
     24 C         141.7219  142.6852  164.8465 C.ar    1  UNL1        0.0727
     25 C         140.6505  142.9791  165.8545 C.ar    1  UNL1        0.0109
     26 C         140.7048  142.3456  167.2130 C.ar    1  UNL1        0.0579
     27 C         141.8304  141.4183  167.5637 C.ar    1  UNL1        0.2251
     28 N         142.9018  141.1244  166.5557 N.ar    1  UNL1       -0.2100
     29 C         142.8475  141.7579  165.1972 C.ar    1  UNL1        0.1065
     30 O         141.8848  140.7847  168.9223 O.3     1  UNL1       -0.4509
     31 C         143.0167  141.1032  169.8535 C.3     1  UNL1        0.3095
     32 C         143.1851  142.4976  170.3801 C.3     1  UNL1        0.4381
     33 F         143.3536  143.8919  170.9066 F       1  UNL1       -0.1663
     34 F         141.8495  142.4036  171.0562 F       1  UNL1       -0.1663
     35 F         144.5208  142.5915  169.7039 F       1  UNL1       -0.1663
@<TRIPOS>BOND
     1    18    19    1
     2    19    11    1
     3    11    12   ar
     4    12    13   ar
     5    13    14   ar
     6    14     1    1
     7     1     2   ar
     8     2     3   ar
     9     3     4   ar
    10     4     5   ar
    11     5     6   ar
    12     6     7    1
    13     7     8    1
    14     8    20    1
    15    20    21   am
    16    21    22    2
    17    21    24    1
    18    24    25   ar
    19    25    26   ar
    20    26    27   ar
    21    27    30    1
    22    30    31    1
    23    31    32    1
    24    32    33    1
    25    32    34    1
    26    32    35    1
    27    27    28   ar
    28    28    29   ar
    29     8     9    1
    30     9    10    1
    31    14    15   ar
    32    15    16   ar
    33    16    17    1
    34    16    11   ar
    35     6     1   ar
    36    29    24   ar
    37    10     5    1
    38    20    23    1
