@<TRIPOS>MOLECULE
*****
 29 33 0 0 0
SMALL
GASTEIGER

@<TRIPOS>ATOM
      1 C         143.1842  138.4893  159.5100 C.ar    1  UNL1        0.1233
      2 C         142.5830  137.3931  158.6810 C.ar    1  UNL1        0.1179
      3 N         142.8886  137.6804  157.2409 N.ar    1  UNL1       -0.2257
      4 N         143.6787  138.9541  157.1798 N.ar    1  UNL1       -0.0635
      5 N         143.8613  139.4540  158.5822 N.ar    1  UNL1       -0.1287
      6 C         144.1658  139.3852  163.2495 C.ar    1  UNL1        0.1547
      7 C         144.2305  139.2735  161.7551 C.ar    1  UNL1        0.0400
      8 C         143.1195  138.6010  161.0045 C.ar    1  UNL1        0.0241
      9 C         141.9438  138.0402  161.7483 C.ar    1  UNL1        0.0033
     10 C         141.8791  138.1519  163.2427 C.ar    1  UNL1        0.0207
     11 C         142.9901  138.8244  163.9933 C.ar    1  UNL1        0.0994
     12 N         142.9254  138.9361  165.4878 N.ar    1  UNL1       -0.2839
     13 C         143.7359  138.1401  166.4673 C.ar    1  UNL1        0.1826
     14 N         143.3502  138.5755  167.8500 N.ar    1  UNL1       -0.2280
     15 C         142.3015  139.6406  167.7249 C.ar    1  UNL1        0.0786
     16 C         141.6326  140.3570  168.8605 C.3     1  UNL1        0.0538
     17 C         142.0389  139.8635  166.2650 C.ar    1  UNL1        0.0963
     18 C         145.5751  141.5077  163.7582 C.3     1  UNL1        0.2525
     19 O         145.2768  140.0577  164.0001 O.3     1  UNL1       -0.4700
     20 C         142.4766  136.8414  156.0677 C.3     1  UNL1        0.1556
     21 C         142.5650  135.3460  156.1473 C.ar    1  UNL1        0.0027
     22 C         141.5242  134.4966  155.4802 C.ar    1  UNL1       -0.0023
     23 C         141.6126  133.0013  155.5597 C.ar    1  UNL1        0.0003
     24 C         142.7419  132.3555  156.3064 C.ar    1  UNL1        0.0065
     25 C         143.0889  130.9173  156.5539 C.ar    1  UNL1        0.0075
     26 C         144.3442  130.8780  157.3740 C.ar    1  UNL1        0.0354
     27 S         144.7731  132.2918  157.6333 S.2     1  UNL1       -0.0864
     28 C         143.7828  133.2049  156.9735 C.ar    1  UNL1        0.0292
     29 C         143.6943  134.7002  156.8939 C.ar    1  UNL1        0.0041
@<TRIPOS>BOND
     1    18    19    1
     2    19     6    1
     3     6     7   ar
     4     7     8   ar
     5     8     1    1
     6     1     2   ar
     7     2     3   ar
     8     3    20    1
     9    20    21    1
    10    21    22   ar
    11    22    23   ar
    12    23    24   ar
    13    24    25   ar
    14    25    26   ar
    15    26    27   ar
    16    27    28   ar
    17    28    29   ar
    18     3     4   ar
    19     4     5   ar
    20     8     9   ar
    21     9    10   ar
    22    10    11   ar
    23    11    12    1
    24    12    13   ar
    25    13    14   ar
    26    14    15   ar
    27    15    16    1
    28    15    17   ar
    29    11     6   ar
    30    17    12   ar
    31     5     1   ar
    32    29    21   ar
    33    28    24   ar
@<TRIPOS>MOLECULE
*****
 29 33 0 0 0
SMALL
GASTEIGER

@<TRIPOS>ATOM
      1 C         143.2239  138.6089  159.5463 C.ar    1  UNL1        0.1233
      2 C         142.5403  137.5827  158.6922 C.ar    1  UNL1        0.1179
      3 N         142.8675  137.8802  157.2588 N.ar    1  UNL1       -0.2257
      4 N         143.7533  139.0904  157.2272 N.ar    1  UNL1       -0.0635
      5 N         143.9736  139.5407  158.6409 N.ar    1  UNL1       -0.1287
      6 C         142.1153  137.9436  163.2985 C.ar    1  UNL1        0.1547
      7 C         142.1715  137.8633  161.8017 C.ar    1  UNL1        0.0400
      8 C         143.1677  138.6891  161.0432 C.ar    1  UNL1        0.0241
      9 C         144.1079  139.5953  161.7814 C.ar    1  UNL1        0.0033
     10 C         144.0517  139.6756  163.2782 C.ar    1  UNL1        0.0207
     11 C         143.0555  138.8497  164.0368 C.ar    1  UNL1        0.0994
     12 N         142.9993  138.9300  165.5336 N.ar    1  UNL1       -0.2839
     13 C         143.7859  138.0858  166.4919 C.ar    1  UNL1        0.1826
     14 N         143.4195  138.5027  167.8854 N.ar    1  UNL1       -0.2280
     15 C         142.4064  139.6045  167.7883 C.ar    1  UNL1        0.0786
     16 C         141.7654  140.3172  168.9422 C.3     1  UNL1        0.0538
     17 C         142.1467  139.8687  166.3347 C.ar    1  UNL1        0.0963
     18 C         139.7654  137.6805  164.3750 C.3     1  UNL1        0.2525
     19 O         141.1191  137.1177  164.0570 O.3     1  UNL1       -0.4700
     20 C         142.3923  137.1040  156.0665 C.3     1  UNL1        0.1556
     21 C         142.4232  135.6044  156.0870 C.ar    1  UNL1        0.0027
     22 C         141.3660  134.8225  155.3654 C.ar    1  UNL1       -0.0023
     23 C         141.3970  133.3229  155.3858 C.ar    1  UNL1        0.0003
     24 C         142.4852  132.6054  156.1280 C.ar    1  UNL1        0.0065
     25 C         142.7730  131.1463  156.3237 C.ar    1  UNL1        0.0075
     26 C         144.0082  131.0265  157.1663 C.ar    1  UNL1        0.0354
     27 S         144.4837  132.4115  157.4913 S.2     1  UNL1       -0.0864
     28 C         143.5425  133.3873  156.8496 C.ar    1  UNL1        0.0292
     29 C         143.5115  134.8868  156.8291 C.ar    1  UNL1        0.0041
@<TRIPOS>BOND
     1    18    19    1
     2    19     6    1
     3     6     7   ar
     4     7     8   ar
     5     8     1    1
     6     1     2   ar
     7     2     3   ar
     8     3    20    1
     9    20    21    1
    10    21    22   ar
    11    22    23   ar
    12    23    24   ar
    13    24    25   ar
    14    25    26   ar
    15    26    27   ar
    16    27    28   ar
    17    28    29   ar
    18     3     4   ar
    19     4     5   ar
    20     8     9   ar
    21     9    10   ar
    22    10    11   ar
    23    11    12    1
    24    12    13   ar
    25    13    14   ar
    26    14    15   ar
    27    15    16    1
    28    15    17   ar
    29    11     6   ar
    30    17    12   ar
    31     5     1   ar
    32    29    21   ar
    33    28    24   ar
@<TRIPOS>MOLECULE
*****
 29 33 0 0 0
SMALL
GASTEIGER

@<TRIPOS>ATOM
      1 C         139.4821  138.9256  159.7414 C.ar    1  UNL1        0.1233
      2 C         140.6416  138.3196  159.0077 C.ar    1  UNL1        0.1179
      3 N         140.3820  138.4566  157.5367 N.ar    1  UNL1       -0.2257
      4 N         139.0620  139.1473  157.3613 N.ar    1  UNL1       -0.0635
      5 N         138.5059  139.4372  158.7239 N.ar    1  UNL1       -0.1287
      6 C         138.3717  140.1990  163.3326 C.ar    1  UNL1        0.1547
      7 C         138.5276  140.1186  161.8428 C.ar    1  UNL1        0.0400
      8 C         139.3262  139.0060  161.2312 C.ar    1  UNL1        0.0241
      9 C         139.9691  137.9737  162.1092 C.ar    1  UNL1        0.0033
     10 C         139.8132  138.0540  163.5990 C.ar    1  UNL1        0.0207
     11 C         139.0146  139.1667  164.2106 C.ar    1  UNL1        0.0994
     12 N         138.8587  139.2470  165.7003 N.ar    1  UNL1       -0.2839
     13 C         137.8250  138.5314  166.5186 C.ar    1  UNL1        0.1826
     14 N         138.0367  138.8992  167.9573 N.ar    1  UNL1       -0.2280
     15 C         139.2012  139.8420  168.0283 C.ar    1  UNL1        0.0786
     16 C         139.7596  140.4611  169.2752 C.3     1  UNL1        0.0538
     17 C         139.7093  140.0569  166.6333 C.ar    1  UNL1        0.0963
     18 C         138.2427  142.6039  164.3071 C.3     1  UNL1        0.2525
     19 O         137.5731  141.3116  163.9442 O.3     1  UNL1       -0.4700
     20 C         141.2839  137.9855  156.4346 C.3     1  UNL1        0.1556
     21 C         141.7827  136.5709  156.4267 C.ar    1  UNL1        0.0027
     22 C         142.9206  136.1718  157.3186 C.ar    1  UNL1       -0.0023
     23 C         143.4194  134.7571  157.3107 C.ar    1  UNL1        0.0003
     24 C         142.7801  133.7416  156.4108 C.ar    1  UNL1        0.0065
     25 C         143.0546  132.2839  156.1879 C.ar    1  UNL1        0.0075
     26 C         142.0862  131.7820  155.1582 C.ar    1  UNL1        0.0354
     27 S         141.2132  132.9296  154.7446 S.2     1  UNL1       -0.0864
     28 C         141.6421  134.1407  155.5188 C.ar    1  UNL1        0.0292
     29 C         141.1434  135.5553  155.5267 C.ar    1  UNL1        0.0041
@<TRIPOS>BOND
     1    18    19    1
     2    19     6    1
     3     6     7   ar
     4     7     8   ar
     5     8     1    1
     6     1     2   ar
     7     2     3   ar
     8     3    20    1
     9    20    21    1
    10    21    22   ar
    11    22    23   ar
    12    23    24   ar
    13    24    25   ar
    14    25    26   ar
    15    26    27   ar
    16    27    28   ar
    17    28    29   ar
    18     3     4   ar
    19     4     5   ar
    20     8     9   ar
    21     9    10   ar
    22    10    11   ar
    23    11    12    1
    24    12    13   ar
    25    13    14   ar
    26    14    15   ar
    27    15    16    1
    28    15    17   ar
    29    11     6   ar
    30    17    12   ar
    31     5     1   ar
    32    29    21   ar
    33    28    24   ar
@<TRIPOS>MOLECULE
*****
 29 33 0 0 0
SMALL
GASTEIGER

@<TRIPOS>ATOM
      1 C         142.3900  139.2065  160.4068 C.ar    1  UNL1        0.1233
      2 C         141.8121  138.6309  159.1479 C.ar    1  UNL1        0.1179
      3 N         142.8194  138.8103  158.0511 N.ar    1  UNL1       -0.2257
      4 N         144.0199  139.4969  158.6321 N.ar    1  UNL1       -0.0635
      5 N         143.7545  139.7417  160.0879 N.ar    1  UNL1       -0.1287
      6 C         141.6706  138.5618  164.2561 C.ar    1  UNL1        0.1547
      7 C         142.3398  138.5274  162.9140 C.ar    1  UNL1        0.0400
      8 C         141.7208  139.2409  161.7489 C.ar    1  UNL1        0.0241
      9 C         140.4326  139.9888  161.9256 C.ar    1  UNL1        0.0033
     10 C         139.7634  140.0231  163.2676 C.ar    1  UNL1        0.0207
     11 C         140.3824  139.3097  164.4329 C.ar    1  UNL1        0.0994
     12 N         139.7132  139.3441  165.7749 N.ar    1  UNL1       -0.2839
     13 C         138.4457  138.6332  166.1465 C.ar    1  UNL1        0.1826
     14 N         138.1432  138.9452  167.5822 N.ar    1  UNL1       -0.2280
     15 C         139.2237  139.8488  168.0978 C.ar    1  UNL1        0.0786
     16 C         139.3174  140.4078  169.4866 C.3     1  UNL1        0.0538
     17 C         140.1941  140.0953  166.9808 C.ar    1  UNL1        0.0963
     18 C         143.3943  138.5001  166.1991 C.3     1  UNL1        0.2525
     19 O         142.2896  137.8483  165.4213 O.3     1  UNL1       -0.4700
     20 C         142.6551  138.3790  156.6239 C.3     1  UNL1        0.1556
     21 C         142.3680  136.9420  156.3030 C.ar    1  UNL1        0.0027
     22 C         141.3051  136.5946  155.3033 C.ar    1  UNL1       -0.0023
     23 C         141.0181  135.1577  154.9825 C.ar    1  UNL1        0.0003
     24 C         141.7940  134.0682  155.6614 C.ar    1  UNL1        0.0065
     25 C         141.7340  132.5736  155.5490 C.ar    1  UNL1        0.0075
     26 C         142.7599  131.9974  156.4794 C.ar    1  UNL1        0.0354
     27 S         143.4539  133.1358  157.1666 S.2     1  UNL1       -0.0864
     28 C         142.8570  134.4156  156.6611 C.ar    1  UNL1        0.0292
     29 C         143.1440  135.8525  156.9819 C.ar    1  UNL1        0.0041
@<TRIPOS>BOND
     1    18    19    1
     2    19     6    1
     3     6     7   ar
     4     7     8   ar
     5     8     1    1
     6     1     2   ar
     7     2     3   ar
     8     3    20    1
     9    20    21    1
    10    21    22   ar
    11    22    23   ar
    12    23    24   ar
    13    24    25   ar
    14    25    26   ar
    15    26    27   ar
    16    27    28   ar
    17    28    29   ar
    18     3     4   ar
    19     4     5   ar
    20     8     9   ar
    21     9    10   ar
    22    10    11   ar
    23    11    12    1
    24    12    13   ar
    25    13    14   ar
    26    14    15   ar
    27    15    16    1
    28    15    17   ar
    29    11     6   ar
    30    17    12   ar
    31     5     1   ar
    32    29    21   ar
    33    28    24   ar
@<TRIPOS>MOLECULE
*****
 29 33 0 0 0
SMALL
GASTEIGER

@<TRIPOS>ATOM
      1 C         140.6158  144.6851  162.4341 C.ar    1  UNL1        0.1233
      2 C         141.3762  144.5167  161.1521 C.ar    1  UNL1        0.1179
      3 N         140.7378  145.3935  160.1159 N.ar    1  UNL1       -0.2257
      4 N         139.5829  146.1038  160.7576 N.ar    1  UNL1       -0.0635
      5 N         139.5075  145.6660  162.1902 N.ar    1  UNL1       -0.1287
      6 C         142.5582  142.6931  165.2642 C.ar    1  UNL1        0.1547
      7 C         142.2622  143.3843  163.9662 C.ar    1  UNL1        0.0400
      8 C         140.9119  143.9939  163.7321 C.ar    1  UNL1        0.0241
      9 C         139.8575  143.9125  164.7958 C.ar    1  UNL1        0.0033
     10 C         140.1535  143.2213  166.0938 C.ar    1  UNL1        0.0207
     11 C         141.5039  142.6117  166.3280 C.ar    1  UNL1        0.0994
     12 N         141.7998  141.9205  167.6260 N.ar    1  UNL1       -0.2839
     13 C         141.9636  142.5844  168.9611 C.ar    1  UNL1        0.1826
     14 N         142.2490  141.5184  169.9769 N.ar    1  UNL1       -0.2280
     15 C         142.2616  140.1956  169.2697 C.ar    1  UNL1        0.0786
     16 C         142.5085  138.8590  169.9041 C.3     1  UNL1        0.0538
     17 C         141.9840  140.4442  167.8167 C.ar    1  UNL1        0.0963
     18 C         144.3740  140.9412  164.6447 C.3     1  UNL1        0.2525
     19 O         143.9085  142.0835  165.4984 O.3     1  UNL1       -0.4700
     20 C         141.1771  145.5351  158.6887 C.3     1  UNL1        0.1556
     21 C         140.1843  145.3619  157.5777 C.ar    1  UNL1        0.0027
     22 C         139.8050  146.5334  156.7213 C.ar    1  UNL1       -0.0023
     23 C         138.8121  146.3602  155.6103 C.ar    1  UNL1        0.0003
     24 C         138.1986  145.0153  155.3558 C.ar    1  UNL1        0.0065
     25 C         137.1993  144.5437  154.3413 C.ar    1  UNL1        0.0075
     26 C         136.9611  143.0807  154.5708 C.ar    1  UNL1        0.0354
     27 S         137.8130  142.6480  155.7271 S.2     1  UNL1       -0.0864
     28 C         138.5779  143.8437  156.2122 C.ar    1  UNL1        0.0292
     29 C         139.5707  144.0170  157.3232 C.ar    1  UNL1        0.0041
@<TRIPOS>BOND
     1    18    19    1
     2    19     6    1
     3     6     7   ar
     4     7     8   ar
     5     8     1    1
     6     1     2   ar
     7     2     3   ar
     8     3    20    1
     9    20    21    1
    10    21    22   ar
    11    22    23   ar
    12    23    24   ar
    13    24    25   ar
    14    25    26   ar
    15    26    27   ar
    16    27    28   ar
    17    28    29   ar
    18     3     4   ar
    19     4     5   ar
    20     8     9   ar
    21     9    10   ar
    22    10    11   ar
    23    11    12    1
    24    12    13   ar
    25    13    14   ar
    26    14    15   ar
    27    15    16    1
    28    15    17   ar
    29    11     6   ar
    30    17    12   ar
    31     5     1   ar
    32    29    21   ar
    33    28    24   ar
@<TRIPOS>MOLECULE
*****
 29 33 0 0 0
SMALL
GASTEIGER

@<TRIPOS>ATOM
      1 C         141.2912  138.4990  160.6708 C.ar    1  UNL1        0.1233
      2 C         142.4356  137.8494  159.9506 C.ar    1  UNL1        0.1179
      3 N         142.0844  137.7752  158.4942 N.ar    1  UNL1       -0.2257
      4 N         140.7231  138.3790  158.3143 N.ar    1  UNL1       -0.0635
      5 N         140.2329  138.8263  159.6595 N.ar    1  UNL1       -0.1287
      6 C         141.0611  140.4601  164.1134 C.ar    1  UNL1        0.1547
      7 C         141.1342  140.1859  162.6405 C.ar    1  UNL1        0.0400
      8 C         141.2182  138.7731  162.1438 C.ar    1  UNL1        0.0241
      9 C         141.2291  137.6343  163.1200 C.ar    1  UNL1        0.0033
     10 C         141.1560  137.9084  164.5929 C.ar    1  UNL1        0.0207
     11 C         141.0720  139.3213  165.0896 C.ar    1  UNL1        0.0994
     12 N         140.9990  139.5954  166.5626 N.ar    1  UNL1       -0.2839
     13 C         142.1562  139.6005  167.5169 C.ar    1  UNL1        0.1826
     14 N         141.6283  139.9208  168.8839 N.ar    1  UNL1       -0.2280
     15 C         140.1448  140.1136  168.7744 C.ar    1  UNL1        0.0786
     16 C         139.2137  140.4487  169.9017 C.3     1  UNL1        0.0538
     17 C         139.7558  139.9125  167.3397 C.ar    1  UNL1        0.0963
     18 C         141.1793  143.0155  163.6593 C.3     1  UNL1        0.2525
     19 O         140.9771  141.8729  164.6101 O.3     1  UNL1       -0.4700
     20 C         142.9437  137.1985  157.4084 C.3     1  UNL1        0.1556
     21 C         142.5773  135.8872  156.7788 C.ar    1  UNL1        0.0027
     22 C         141.5800  135.8454  155.6592 C.ar    1  UNL1       -0.0023
     23 C         141.2136  134.5341  155.0297 C.ar    1  UNL1        0.0003
     24 C         141.8445  133.2646  155.5199 C.ar    1  UNL1        0.0065
     25 C         141.6816  131.8346  155.0974 C.ar    1  UNL1        0.0075
     26 C         142.5782  130.9926  155.9559 C.ar    1  UNL1        0.0354
     27 S         143.2953  131.9022  156.9090 S.2     1  UNL1       -0.0864
     28 C         142.8418  133.3064  156.6395 C.ar    1  UNL1        0.0292
     29 C         143.2082  134.6177  157.2690 C.ar    1  UNL1        0.0041
@<TRIPOS>BOND
     1    18    19    1
     2    19     6    1
     3     6     7   ar
     4     7     8   ar
     5     8     1    1
     6     1     2   ar
     7     2     3   ar
     8     3    20    1
     9    20    21    1
    10    21    22   ar
    11    22    23   ar
    12    23    24   ar
    13    24    25   ar
    14    25    26   ar
    15    26    27   ar
    16    27    28   ar
    17    28    29   ar
    18     3     4   ar
    19     4     5   ar
    20     8     9   ar
    21     9    10   ar
    22    10    11   ar
    23    11    12    1
    24    12    13   ar
    25    13    14   ar
    26    14    15   ar
    27    15    16    1
    28    15    17   ar
    29    11     6   ar
    30    17    12   ar
    31     5     1   ar
    32    29    21   ar
    33    28    24   ar
@<TRIPOS>MOLECULE
*****
 29 33 0 0 0
SMALL
GASTEIGER

@<TRIPOS>ATOM
      1 C         140.4568  138.0595  162.3878 C.ar    1  UNL1        0.1233
      2 C         139.5274  138.9503  163.1576 C.ar    1  UNL1        0.1179
      3 N         139.4863  138.4626  164.5755 N.ar    1  UNL1       -0.2257
      4 N         140.3904  137.2703  164.6820 N.ar    1  UNL1       -0.0635
      5 N         140.9902  137.0212  163.3299 N.ar    1  UNL1       -0.1287
      6 C         140.0548  138.6348  158.4817 C.ar    1  UNL1        0.1547
      7 C         139.7179  138.5093  159.9380 C.ar    1  UNL1        0.0400
      8 C         140.7938  138.1849  160.9315 C.ar    1  UNL1        0.0241
      9 C         142.2067  137.9860  160.4688 C.ar    1  UNL1        0.0033
     10 C         142.5436  138.1114  159.0125 C.ar    1  UNL1        0.0207
     11 C         141.4677  138.4358  158.0190 C.ar    1  UNL1        0.0994
     12 N         141.8047  138.5613  156.5627 N.ar    1  UNL1       -0.2839
     13 C         142.4022  139.7651  155.8965 C.ar    1  UNL1        0.1826
     14 N         142.5701  139.4528  154.4390 N.ar    1  UNL1       -0.2280
     15 C         142.0764  138.0559  154.2045 C.ar    1  UNL1        0.0786
     16 C         142.0588  137.3363  152.8884 C.3     1  UNL1        0.0538
     17 C         141.6033  137.5049  155.5170 C.ar    1  UNL1        0.0963
     18 C         138.7590  140.3793  157.0577 C.3     1  UNL1        0.2525
     19 O         138.9789  138.9592  157.4882 O.3     1  UNL1       -0.4700
     20 C         138.6823  139.0619  165.6911 C.3     1  UNL1        0.1556
     21 C         139.2862  140.1201  166.5662 C.ar    1  UNL1        0.0027
     22 C         139.7684  141.4062  165.9638 C.ar    1  UNL1       -0.0023
     23 C         140.3723  142.4644  166.8389 C.ar    1  UNL1        0.0003
     24 C         140.4938  142.2362  168.3164 C.ar    1  UNL1        0.0065
     25 C         141.0411  143.0895  169.4221 C.ar    1  UNL1        0.0075
     26 C         140.8970  142.3305  170.7078 C.ar    1  UNL1        0.0354
     27 S         140.2606  141.0083  170.3969 S.2     1  UNL1       -0.0864
     28 C         140.0114  140.9500  168.9189 C.ar    1  UNL1        0.0292
     29 C         139.4076  139.8919  168.0437 C.ar    1  UNL1        0.0041
@<TRIPOS>BOND
     1    18    19    1
     2    19     6    1
     3     6     7   ar
     4     7     8   ar
     5     8     1    1
     6     1     2   ar
     7     2     3   ar
     8     3    20    1
     9    20    21    1
    10    21    22   ar
    11    22    23   ar
    12    23    24   ar
    13    24    25   ar
    14    25    26   ar
    15    26    27   ar
    16    27    28   ar
    17    28    29   ar
    18     3     4   ar
    19     4     5   ar
    20     8     9   ar
    21     9    10   ar
    22    10    11   ar
    23    11    12    1
    24    12    13   ar
    25    13    14   ar
    26    14    15   ar
    27    15    16    1
    28    15    17   ar
    29    11     6   ar
    30    17    12   ar
    31     5     1   ar
    32    29    21   ar
    33    28    24   ar
@<TRIPOS>MOLECULE
*****
 29 33 0 0 0
SMALL
GASTEIGER

@<TRIPOS>ATOM
      1 C         143.5351  140.0829  160.3930 C.ar    1  UNL1        0.1233
      2 C         143.6033  141.2390  159.4396 C.ar    1  UNL1        0.1179
      3 N         143.7651  140.6880  158.0539 N.ar    1  UNL1       -0.2257
      4 N         143.7969  139.1914  158.1510 N.ar    1  UNL1       -0.0635
      5 N         143.6548  138.8175  159.5966 N.ar    1  UNL1       -0.1287
      6 C         141.8446  140.3456  163.9741 C.ar    1  UNL1        0.1547
      7 C         142.0044  140.2525  162.4855 C.ar    1  UNL1        0.0400
      8 C         143.3753  140.1761  161.8817 C.ar    1  UNL1        0.0241
      9 C         144.5865  140.1929  162.7663 C.ar    1  UNL1        0.0033
     10 C         144.4267  140.2860  164.2549 C.ar    1  UNL1        0.0207
     11 C         143.0558  140.3624  164.8588 C.ar    1  UNL1        0.0994
     12 N         142.8960  140.4555  166.3473 N.ar    1  UNL1       -0.2839
     13 C         142.8667  141.7201  167.1535 C.ar    1  UNL1        0.1826
     14 N         142.6901  141.3466  168.5954 N.ar    1  UNL1       -0.2280
     15 C         142.6103  139.8511  168.6805 C.ar    1  UNL1        0.0786
     16 C         142.4341  139.0474  169.9347 C.3     1  UNL1        0.0538
     17 C         142.7376  139.3004  167.2910 C.ar    1  UNL1        0.0963
     18 C         139.8435  141.7575  164.8415 C.3     1  UNL1        0.2525
     19 O         140.4737  140.4220  164.5779 O.3     1  UNL1       -0.4700
     20 C         143.8757  141.4923  156.7926 C.3     1  UNL1        0.1556
     21 C         145.2165  141.7067  156.1550 C.ar    1  UNL1        0.0027
     22 C         146.3485  142.2712  156.9610 C.ar    1  UNL1       -0.0023
     23 C         147.6893  142.4857  156.3234 C.ar    1  UNL1        0.0003
     24 C         147.8979  142.1355  154.8798 C.ar    1  UNL1        0.0065
     25 C         149.0985  142.2355  153.9862 C.ar    1  UNL1        0.0075
     26 C         148.7083  141.7327  152.6279 C.ar    1  UNL1        0.0354
     27 S         147.2666  141.3220  152.6821 S.2     1  UNL1       -0.0864
     28 C         146.7658  141.5710  154.0739 C.ar    1  UNL1        0.0292
     29 C         145.4251  141.3566  154.7115 C.ar    1  UNL1        0.0041
@<TRIPOS>BOND
     1    18    19    1
     2    19     6    1
     3     6     7   ar
     4     7     8   ar
     5     8     1    1
     6     1     2   ar
     7     2     3   ar
     8     3    20    1
     9    20    21    1
    10    21    22   ar
    11    22    23   ar
    12    23    24   ar
    13    24    25   ar
    14    25    26   ar
    15    26    27   ar
    16    27    28   ar
    17    28    29   ar
    18     3     4   ar
    19     4     5   ar
    20     8     9   ar
    21     9    10   ar
    22    10    11   ar
    23    11    12    1
    24    12    13   ar
    25    13    14   ar
    26    14    15   ar
    27    15    16    1
    28    15    17   ar
    29    11     6   ar
    30    17    12   ar
    31     5     1   ar
    32    29    21   ar
    33    28    24   ar
@<TRIPOS>MOLECULE
*****
 29 33 0 0 0
SMALL
GASTEIGER

@<TRIPOS>ATOM
      1 C         142.8626  138.9026  159.2826 C.ar    1  UNL1        0.1233
      2 C         142.0464  137.8556  158.5842 C.ar    1  UNL1        0.1179
      3 N         142.5560  137.7317  157.1789 N.ar    1  UNL1       -0.2257
      4 N         143.6871  138.7022  157.0088 N.ar    1  UNL1       -0.0635
      5 N         143.8765  139.4258  158.3089 N.ar    1  UNL1       -0.1287
      6 C         143.4288  140.8485  162.6949 C.ar    1  UNL1        0.1547
      7 C         143.5971  140.4030  161.2724 C.ar    1  UNL1        0.0400
      8 C         142.6942  139.3481  160.7051 C.ar    1  UNL1        0.0241
      9 C         141.6230  138.7387  161.5600 C.ar    1  UNL1        0.0033
     10 C         141.4546  139.1841  162.9824 C.ar    1  UNL1        0.0207
     11 C         142.3575  140.2391  163.5498 C.ar    1  UNL1        0.0994
     12 N         142.1892  140.6845  164.9722 N.ar    1  UNL1       -0.2839
     13 C         142.9785  140.1932  166.1493 C.ar    1  UNL1        0.1826
     14 N         142.4791  140.9046  167.3718 N.ar    1  UNL1       -0.2280
     15 C         141.3811  141.8355  166.9503 C.ar    1  UNL1        0.0786
     16 C         140.5994  142.7431  167.8533 C.3     1  UNL1        0.0538
     17 C         141.2018  141.6995  165.4672 C.ar    1  UNL1        0.0963
     18 C         145.7370  141.5558  163.6549 C.3     1  UNL1        0.2525
     19 O         144.3316  141.9034  163.2622 O.3     1  UNL1       -0.4700
     20 C         142.0273  136.8009  156.1282 C.3     1  UNL1        0.1556
     21 C         142.5915  135.4168  155.9999 C.ar    1  UNL1        0.0027
     22 C         143.4618  134.8580  157.0861 C.ar    1  UNL1       -0.0023
     23 C         144.0259  133.4740  156.9578 C.ar    1  UNL1        0.0003
     24 C         143.7196  132.6489  155.7431 C.ar    1  UNL1        0.0065
     25 C         144.1301  131.2633  155.3414 C.ar    1  UNL1        0.0075
     26 C         143.5134  130.9658  154.0068 C.ar    1  UNL1        0.0354
     27 S         142.7218  132.1676  153.5837 S.2     1  UNL1       -0.0864
     28 C         142.8492  133.2078  154.6568 C.ar    1  UNL1        0.0292
     29 C         142.2851  134.5918  154.7852 C.ar    1  UNL1        0.0041
@<TRIPOS>BOND
     1    18    19    1
     2    19     6    1
     3     6     7   ar
     4     7     8   ar
     5     8     1    1
     6     1     2   ar
     7     2     3   ar
     8     3    20    1
     9    20    21    1
    10    21    22   ar
    11    22    23   ar
    12    23    24   ar
    13    24    25   ar
    14    25    26   ar
    15    26    27   ar
    16    27    28   ar
    17    28    29   ar
    18     3     4   ar
    19     4     5   ar
    20     8     9   ar
    21     9    10   ar
    22    10    11   ar
    23    11    12    1
    24    12    13   ar
    25    13    14   ar
    26    14    15   ar
    27    15    16    1
    28    15    17   ar
    29    11     6   ar
    30    17    12   ar
    31     5     1   ar
    32    29    21   ar
    33    28    24   ar
