@<TRIPOS>MOLECULE
*****
 23 25 0 0 0
SMALL
GASTEIGER

@<TRIPOS>ATOM
      1 N         140.4583  142.4869  166.9053 N.am    1  UNL1       -0.2557
      2 C         140.3389  142.7236  168.3817 C.2     1  UNL1        0.2305
      3 O         140.0989  143.9249  169.2473 O.2     1  UNL1       -0.2745
      4 C         140.5590  141.2615  168.6339 C.3     1  UNL1        0.0903
      5 C         140.7791  139.7992  168.8861 C.3     1  UNL1        0.0111
      6 C         140.4396  141.4982  170.1103 C.3     1  UNL1        0.0111
      7 C         140.6784  141.0247  167.1575 C.3     1  UNL1        0.1130
      8 C         140.2448  145.0865  163.2383 C.ar    1  UNL1        0.1388
      9 C         139.0427  144.9372  164.1229 C.ar    1  UNL1        0.0382
     10 C         139.1138  144.0707  165.3452 C.ar    1  UNL1        0.0180
     11 C         140.3872  143.3534  165.6830 C.ar    1  UNL1        0.0543
     12 C         141.5893  143.5027  164.7984 C.ar    1  UNL1        0.0180
     13 C         141.5181  144.3693  163.5761 C.ar    1  UNL1        0.0382
     14 C         140.5361  145.3886  160.6744 C.3     1  UNL1        0.2525
     15 O         140.1736  145.9530  162.0160 O.3     1  UNL1       -0.4714
     16 C         140.9185  139.8234  166.2919 C.ar    1  UNL1        0.0305
     17 C         142.3187  139.4337  165.9213 C.ar    1  UNL1        0.0004
     18 C         142.5588  138.2324  165.0557 C.ar    1  UNL1       -0.0001
     19 C         141.3986  137.4208  164.5607 C.ar    1  UNL1        0.0031
     20 C         139.9982  137.8105  164.9312 C.ar    1  UNL1        0.0366
     21 C         139.7582  139.0117  165.7969 C.ar    1  UNL1        0.1363
     22 O         138.3579  139.4014  166.1674 O.3     1  UNL1       -0.4717
     23 C         137.5783  138.5644  167.1379 C.3     1  UNL1        0.2525
@<TRIPOS>BOND
     1    14    15    1
     2    15     8    1
     3     8     9   ar
     4     9    10   ar
     5    10    11   ar
     6    11     1    1
     7     1     2   am
     8     2     3    2
     9     2     4    1
    10     4     5    1
    11     4     6    1
    12     4     7    1
    13     7    16    1
    14    16    17   ar
    15    17    18   ar
    16    18    19   ar
    17    19    20   ar
    18    20    21   ar
    19    21    22    1
    20    22    23    1
    21    11    12   ar
    22    12    13   ar
    23    13     8   ar
    24     7     1    1
    25    21    16   ar
@<TRIPOS>MOLECULE
*****
 23 25 0 0 0
SMALL
GASTEIGER

@<TRIPOS>ATOM
      1 N         140.1694  142.4890  166.8207 N.am    1  UNL1       -0.2557
      2 C         140.2358  142.7817  168.2904 C.2     1  UNL1        0.2305
      3 O         140.1148  144.0172  169.1323 O.2     1  UNL1       -0.2745
      4 C         140.4734  141.3271  168.5693 C.3     1  UNL1        0.0903
      5 C         140.7110  139.8725  168.8483 C.3     1  UNL1        0.0111
      6 C         140.5398  141.6199  170.0390 C.3     1  UNL1        0.0111
      7 C         140.4070  141.0343  167.0997 C.3     1  UNL1        0.1130
      8 C         139.5245  144.9535  163.1112 C.ar    1  UNL1        0.1388
      9 C         138.3476  144.4868  163.9156 C.ar    1  UNL1        0.0382
     10 C         138.5626  143.6653  165.1521 C.ar    1  UNL1        0.0180
     11 C         139.9544  143.3105  165.5842 C.ar    1  UNL1        0.0543
     12 C         141.1313  143.7772  164.7799 C.ar    1  UNL1        0.0180
     13 C         140.9164  144.5987  163.5434 C.ar    1  UNL1        0.0382
     14 C         140.2282  145.6163  160.6997 C.3     1  UNL1        0.2525
     15 O         139.3096  145.7751  161.8748 O.3     1  UNL1       -0.4714
     16 C         140.5280  139.7988  166.2577 C.ar    1  UNL1        0.0305
     17 C         139.3068  138.9918  165.9302 C.ar    1  UNL1        0.0004
     18 C         139.4278  137.7563  165.0883 C.ar    1  UNL1       -0.0001
     19 C         140.7700  137.3278  164.5739 C.ar    1  UNL1        0.0031
     20 C         141.9914  138.1348  164.9014 C.ar    1  UNL1        0.0366
     21 C         141.8703  139.3703  165.7433 C.ar    1  UNL1        0.1363
     22 O         143.0916  140.1773  166.0708 O.3     1  UNL1       -0.4717
     23 C         143.7633  140.9884  165.0027 C.3     1  UNL1        0.2525
@<TRIPOS>BOND
     1    14    15    1
     2    15     8    1
     3     8     9   ar
     4     9    10   ar
     5    10    11   ar
     6    11     1    1
     7     1     2   am
     8     2     3    2
     9     2     4    1
    10     4     5    1
    11     4     6    1
    12     4     7    1
    13     7    16    1
    14    16    17   ar
    15    17    18   ar
    16    18    19   ar
    17    19    20   ar
    18    20    21   ar
    19    21    22    1
    20    22    23    1
    21    11    12   ar
    22    12    13   ar
    23    13     8   ar
    24     7     1    1
    25    21    16   ar
@<TRIPOS>MOLECULE
*****
 23 25 0 0 0
SMALL
GASTEIGER

@<TRIPOS>ATOM
      1 N         141.7339  140.9195  165.4377 N.am    1  UNL1       -0.2557
      2 C         142.6477  139.7538  165.2003 C.2     1  UNL1        0.2305
      3 O         143.2599  139.1155  163.9888 O.2     1  UNL1       -0.2745
      4 C         142.6956  139.4910  166.6763 C.3     1  UNL1        0.0903
      5 C         142.7436  139.2281  168.1524 C.3     1  UNL1        0.0111
      6 C         143.6094  138.3253  166.4390 C.3     1  UNL1        0.0111
      7 C         141.7819  140.6566  166.9137 C.3     1  UNL1        0.1130
      8 C         139.6938  143.9500  162.8100 C.ar    1  UNL1        0.1388
      9 C         140.0543  142.6019  162.2599 C.ar    1  UNL1        0.0382
     10 C         140.7343  141.5917  163.1358 C.ar    1  UNL1        0.0180
     11 C         141.0539  141.9297  164.5618 C.ar    1  UNL1        0.0543
     12 C         140.6934  143.2777  165.1119 C.ar    1  UNL1        0.0180
     13 C         140.0134  144.2879  164.2361 C.ar    1  UNL1        0.0382
     14 C         139.6859  146.2675  161.6357 C.3     1  UNL1        0.2525
     15 O         139.0138  144.9601  161.9341 O.3     1  UNL1       -0.4714
     16 C         141.1697  141.2949  168.1252 C.ar    1  UNL1        0.0305
     17 C         141.7764  142.5380  168.7055 C.ar    1  UNL1        0.0004
     18 C         141.1642  143.1763  169.9170 C.ar    1  UNL1       -0.0001
     19 C         139.9453  142.5716  170.5482 C.ar    1  UNL1        0.0031
     20 C         139.3385  141.3285  169.9680 C.ar    1  UNL1        0.0366
     21 C         139.9507  140.6902  168.7565 C.ar    1  UNL1        0.1363
     22 O         139.3440  139.4472  168.1762 O.3     1  UNL1       -0.4717
     23 C         138.5901  139.5146  166.8811 C.3     1  UNL1        0.2525
@<TRIPOS>BOND
     1    14    15    1
     2    15     8    1
     3     8     9   ar
     4     9    10   ar
     5    10    11   ar
     6    11     1    1
     7     1     2   am
     8     2     3    2
     9     2     4    1
    10     4     5    1
    11     4     6    1
    12     4     7    1
    13     7    16    1
    14    16    17   ar
    15    17    18   ar
    16    18    19   ar
    17    19    20   ar
    18    20    21   ar
    19    21    22    1
    20    22    23    1
    21    11    12   ar
    22    12    13   ar
    23    13     8   ar
    24     7     1    1
    25    21    16   ar
@<TRIPOS>MOLECULE
*****
 23 25 0 0 0
SMALL
GASTEIGER

@<TRIPOS>ATOM
      1 N         140.2029  139.8134  166.0411 N.am    1  UNL1       -0.2557
      2 C         139.8523  139.7005  167.4952 C.2     1  UNL1        0.2305
      3 O         138.5930  139.4329  168.2650 O.2     1  UNL1       -0.2745
      4 C         141.2827  139.9662  167.8606 C.3     1  UNL1        0.0903
      5 C         142.7130  140.2319  168.2261 C.3     1  UNL1        0.0111
      6 C         140.9321  139.8534  169.3148 C.3     1  UNL1        0.0111
      7 C         141.6333  140.0791  166.4066 C.3     1  UNL1        0.1130
      8 C         137.9124  139.4892  162.1812 C.ar    1  UNL1        0.1388
      9 C         137.7073  140.6741  163.0778 C.ar    1  UNL1        0.0382
     10 C         138.4708  140.7822  164.3644 C.ar    1  UNL1        0.0180
     11 C         139.4394  139.7054  164.7545 C.ar    1  UNL1        0.0543
     12 C         139.6445  138.5205  163.8579 C.ar    1  UNL1        0.0180
     13 C         138.8810  138.4124  162.5713 C.ar    1  UNL1        0.0382
     14 C         137.6565  140.0677  159.6614 C.3     1  UNL1        0.2525
     15 O         137.1489  139.3812  160.8946 O.3     1  UNL1       -0.4714
     16 C         142.8926  140.3468  165.6368 C.ar    1  UNL1        0.0305
     17 C         143.7664  139.2055  165.2080 C.ar    1  UNL1        0.0004
     18 C         145.0257  139.4732  164.4383 C.ar    1  UNL1       -0.0001
     19 C         145.4112  140.8821  164.0973 C.ar    1  UNL1        0.0031
     20 C         144.5373  142.0235  164.5261 C.ar    1  UNL1        0.0366
     21 C         143.2780  141.7558  165.2958 C.ar    1  UNL1        0.1363
     22 O         142.4042  142.8970  165.7246 O.3     1  UNL1       -0.4717
     23 C         141.3378  143.4123  164.8039 C.3     1  UNL1        0.2525
@<TRIPOS>BOND
     1    14    15    1
     2    15     8    1
     3     8     9   ar
     4     9    10   ar
     5    10    11   ar
     6    11     1    1
     7     1     2   am
     8     2     3    2
     9     2     4    1
    10     4     5    1
    11     4     6    1
    12     4     7    1
    13     7    16    1
    14    16    17   ar
    15    17    18   ar
    16    18    19   ar
    17    19    20   ar
    18    20    21   ar
    19    21    22    1
    20    22    23    1
    21    11    12   ar
    22    12    13   ar
    23    13     8   ar
    24     7     1    1
    25    21    16   ar
@<TRIPOS>MOLECULE
*****
 23 25 0 0 0
SMALL
GASTEIGER

@<TRIPOS>ATOM
      1 N         139.8065  141.3007  165.4104 N.am    1  UNL1       -0.2557
      2 C         138.8252  140.1662  165.4169 C.2     1  UNL1        0.2305
      3 O         137.9839  139.4855  164.3782 O.2     1  UNL1       -0.2745
      4 C         139.0336  139.9944  166.8924 C.3     1  UNL1        0.0903
      5 C         139.2420  139.8226  168.3679 C.3     1  UNL1        0.0111
      6 C         138.0523  138.8599  166.8989 C.3     1  UNL1        0.0111
      7 C         140.0149  141.1289  166.8860 C.3     1  UNL1        0.1130
      8 C         141.4460  144.0717  162.2667 C.ar    1  UNL1        0.1388
      9 C         140.9044  142.7291  161.8743 C.ar    1  UNL1        0.0382
     10 C         140.3579  141.8055  162.9222 C.ar    1  UNL1        0.0180
     11 C         140.3530  142.2244  164.3625 C.ar    1  UNL1        0.0543
     12 C         140.8946  143.5670  164.7548 C.ar    1  UNL1        0.0180
     13 C         141.4411  144.4907  163.7069 C.ar    1  UNL1        0.0382
     14 C         141.2157  145.2451  159.9601 C.3     1  UNL1        0.2525
     15 O         141.9925  144.9954  161.2187 O.3     1  UNL1       -0.4714
     16 C         140.8561  141.8096  167.9247 C.ar    1  UNL1        0.0305
     17 C         140.2339  142.8030  168.8606 C.ar    1  UNL1        0.0004
     18 C         141.0752  143.4837  169.8993 C.ar    1  UNL1       -0.0001
     19 C         142.5386  143.1711  170.0022 C.ar    1  UNL1        0.0031
     20 C         143.1608  142.1776  169.0662 C.ar    1  UNL1        0.0366
     21 C         142.3196  141.4969  168.0275 C.ar    1  UNL1        0.1363
     22 O         142.9418  140.5035  167.0915 O.3     1  UNL1       -0.4717
     23 C         142.9070  139.0402  167.4196 C.3     1  UNL1        0.2525
@<TRIPOS>BOND
     1    14    15    1
     2    15     8    1
     3     8     9   ar
     4     9    10   ar
     5    10    11   ar
     6    11     1    1
     7     1     2   am
     8     2     3    2
     9     2     4    1
    10     4     5    1
    11     4     6    1
    12     4     7    1
    13     7    16    1
    14    16    17   ar
    15    17    18   ar
    16    18    19   ar
    17    19    20   ar
    18    20    21   ar
    19    21    22    1
    20    22    23    1
    21    11    12   ar
    22    12    13   ar
    23    13     8   ar
    24     7     1    1
    25    21    16   ar
@<TRIPOS>MOLECULE
*****
 23 25 0 0 0
SMALL
GASTEIGER

@<TRIPOS>ATOM
      1 N         140.4169  140.1381  166.4173 N.am    1  UNL1       -0.2557
      2 C         140.1395  140.0547  167.8892 C.2     1  UNL1        0.2305
      3 O         138.9819  139.5970  168.7261 O.2     1  UNL1       -0.2745
      4 C         141.4993  140.6186  168.1773 C.3     1  UNL1        0.0903
      5 C         142.8591  141.1825  168.4655 C.3     1  UNL1        0.0111
      6 C         141.2219  140.5353  169.6491 C.3     1  UNL1        0.0111
      7 C         141.7767  140.7020  166.7056 C.3     1  UNL1        0.1130
      8 C         138.1208  139.1186  162.6839 C.ar    1  UNL1        0.1388
      9 C         138.0398  140.5011  163.2602 C.ar    1  UNL1        0.0382
     10 C         138.8052  140.8409  164.5047 C.ar    1  UNL1        0.0180
     11 C         139.6516  139.7983  165.1728 C.ar    1  UNL1        0.0543
     12 C         139.7326  138.4158  164.5965 C.ar    1  UNL1        0.0180
     13 C         138.9672  138.0760  163.3520 C.ar    1  UNL1        0.0382
     14 C         137.3151  139.7483  160.2955 C.3     1  UNL1        0.2525
     15 O         137.3555  138.7788  161.4394 O.3     1  UNL1       -0.4714
     16 C         142.9344  141.1597  165.8687 C.ar    1  UNL1        0.0305
     17 C         143.2267  142.6243  165.7298 C.ar    1  UNL1        0.0004
     18 C         144.3844  143.0820  164.8929 C.ar    1  UNL1       -0.0001
     19 C         145.2496  142.0750  164.1948 C.ar    1  UNL1        0.0031
     20 C         144.9573  140.6103  164.3337 C.ar    1  UNL1        0.0366
     21 C         143.7996  140.1526  165.1706 C.ar    1  UNL1        0.1363
     22 O         143.5073  138.6880  165.3094 O.3     1  UNL1       -0.4717
     23 C         143.9285  137.9531  166.5475 C.3     1  UNL1        0.2525
@<TRIPOS>BOND
     1    14    15    1
     2    15     8    1
     3     8     9   ar
     4     9    10   ar
     5    10    11   ar
     6    11     1    1
     7     1     2   am
     8     2     3    2
     9     2     4    1
    10     4     5    1
    11     4     6    1
    12     4     7    1
    13     7    16    1
    14    16    17   ar
    15    17    18   ar
    16    18    19   ar
    17    19    20   ar
    18    20    21   ar
    19    21    22    1
    20    22    23    1
    21    11    12   ar
    22    12    13   ar
    23    13     8   ar
    24     7     1    1
    25    21    16   ar
@<TRIPOS>MOLECULE
*****
 23 25 0 0 0
SMALL
GASTEIGER

@<TRIPOS>ATOM
      1 N         142.3634  141.8408  166.8107 N.am    1  UNL1       -0.2557
      2 C         143.0450  141.9521  168.1423 C.2     1  UNL1        0.2305
      3 O         144.0583  142.8822  168.7408 O.2     1  UNL1       -0.2745
      4 C         142.2934  140.7481  168.6276 C.3     1  UNL1        0.0903
      5 C         141.5418  139.5441  169.1129 C.3     1  UNL1        0.0111
      6 C         142.9750  140.8595  169.9592 C.3     1  UNL1        0.0111
      7 C         141.6119  140.6367  167.2960 C.3     1  UNL1        0.1130
      8 C         142.5119  144.1588  162.9565 C.ar    1  UNL1        0.1388
      9 C         143.7442  144.0294  163.8018 C.ar    1  UNL1        0.0382
     10 C         143.6947  143.2567  165.0866 C.ar    1  UNL1        0.0180
     11 C         142.4129  142.6135  165.5260 C.ar    1  UNL1        0.0543
     12 C         141.1806  142.7429  164.6806 C.ar    1  UNL1        0.0180
     13 C         141.2301  143.5155  163.3959 C.ar    1  UNL1        0.0382
     14 C         141.4775  144.7573  160.6496 C.3     1  UNL1        0.2525
     15 O         142.5614  144.9314  161.6717 O.3     1  UNL1       -0.4714
     16 C         140.5985  139.7066  166.6976 C.ar    1  UNL1        0.0305
     17 C         139.1586  139.8027  167.1067 C.ar    1  UNL1        0.0004
     18 C         138.1453  138.8726  166.5083 C.ar    1  UNL1       -0.0001
     19 C         138.5719  137.8465  165.5008 C.ar    1  UNL1        0.0031
     20 C         140.0119  137.7504  165.0917 C.ar    1  UNL1        0.0366
     21 C         141.0252  138.6805  165.6901 C.ar    1  UNL1        0.1363
     22 O         142.4651  138.5845  165.2810 O.3     1  UNL1       -0.4717
     23 C         142.9311  139.2433  164.0166 C.3     1  UNL1        0.2525
@<TRIPOS>BOND
     1    14    15    1
     2    15     8    1
     3     8     9   ar
     4     9    10   ar
     5    10    11   ar
     6    11     1    1
     7     1     2   am
     8     2     3    2
     9     2     4    1
    10     4     5    1
    11     4     6    1
    12     4     7    1
    13     7    16    1
    14    16    17   ar
    15    17    18   ar
    16    18    19   ar
    17    19    20   ar
    18    20    21   ar
    19    21    22    1
    20    22    23    1
    21    11    12   ar
    22    12    13   ar
    23    13     8   ar
    24     7     1    1
    25    21    16   ar
@<TRIPOS>MOLECULE
*****
 23 25 0 0 0
SMALL
GASTEIGER

@<TRIPOS>ATOM
      1 N         142.0655  140.0258  165.6997 N.am    1  UNL1       -0.2557
      2 C         142.3836  139.5249  167.0774 C.2     1  UNL1        0.2305
      3 O         143.3771  138.5588  167.6515 O.2     1  UNL1       -0.2745
      4 C         141.2967  140.3902  167.6429 C.3     1  UNL1        0.0903
      5 C         140.2098  141.2555  168.2086 C.3     1  UNL1        0.0111
      6 C         141.6149  139.8892  169.0206 C.3     1  UNL1        0.0111
      7 C         140.9785  140.8911  166.2654 C.3     1  UNL1        0.1130
      8 C         143.6963  139.2530  161.5774 C.ar    1  UNL1        0.1388
      9 C         143.8467  140.6086  162.2015 C.ar    1  UNL1        0.0382
     10 C         143.3031  140.8663  163.5756 C.ar    1  UNL1        0.0180
     11 C         142.6091  139.7682  164.3256 C.ar    1  UNL1        0.0543
     12 C         142.4587  138.4125  163.7015 C.ar    1  UNL1        0.0180
     13 C         143.0022  138.1549  162.3274 C.ar    1  UNL1        0.0382
     14 C         143.4786  139.4583  158.9966 C.3     1  UNL1        0.2525
     15 O         144.2398  138.9954  160.2033 O.3     1  UNL1       -0.4714
     16 C         139.9850  141.8572  165.6912 C.ar    1  UNL1        0.0305
     17 C         140.2582  143.3313  165.7394 C.ar    1  UNL1        0.0004
     18 C         139.2647  144.2974  165.1652 C.ar    1  UNL1       -0.0001
     19 C         137.9980  143.7893  164.5429 C.ar    1  UNL1        0.0031
     20 C         137.7247  142.3152  164.4947 C.ar    1  UNL1        0.0366
     21 C         138.7183  141.3491  165.0689 C.ar    1  UNL1        0.1363
     22 O         138.4451  139.8750  165.0207 O.3     1  UNL1       -0.4717
     23 C         138.7009  139.1056  163.7587 C.3     1  UNL1        0.2525
@<TRIPOS>BOND
     1    14    15    1
     2    15     8    1
     3     8     9   ar
     4     9    10   ar
     5    10    11   ar
     6    11     1    1
     7     1     2   am
     8     2     3    2
     9     2     4    1
    10     4     5    1
    11     4     6    1
    12     4     7    1
    13     7    16    1
    14    16    17   ar
    15    17    18   ar
    16    18    19   ar
    17    19    20   ar
    18    20    21   ar
    19    21    22    1
    20    22    23    1
    21    11    12   ar
    22    12    13   ar
    23    13     8   ar
    24     7     1    1
    25    21    16   ar
@<TRIPOS>MOLECULE
*****
 23 25 0 0 0
SMALL
GASTEIGER

@<TRIPOS>ATOM
      1 N         140.8163  140.1173  165.8600 N.am    1  UNL1       -0.2557
      2 C         139.5759  139.2783  165.7722 C.2     1  UNL1        0.2305
      3 O         138.9255  138.4559  164.6996 O.2     1  UNL1       -0.2745
      4 C         139.2556  139.6025  167.2013 C.3     1  UNL1        0.0903
      5 C         138.9352  139.9266  168.6304 C.3     1  UNL1        0.0111
      6 C         138.0152  138.7635  167.1134 C.3     1  UNL1        0.0111
      7 C         140.4959  140.4414  167.2892 C.3     1  UNL1        0.1130
      8 C         144.1272  141.2095  163.0148 C.ar    1  UNL1        0.1388
      9 C         142.9418  142.1156  163.1694 C.ar    1  UNL1        0.0382
     10 C         141.8382  141.7515  164.1179 C.ar    1  UNL1        0.0180
     11 C         141.9199  140.4814  164.9116 C.ar    1  UNL1        0.0543
     12 C         143.1053  139.5753  164.7569 C.ar    1  UNL1        0.0180
     13 C         144.2089  139.9394  163.8085 C.ar    1  UNL1        0.0382
     14 C         144.9432  142.4458  160.8804 C.3     1  UNL1        0.2525
     15 O         145.2308  141.5736  162.0663 O.3     1  UNL1       -0.4714
     16 C         141.1464  141.2638  168.3618 C.ar    1  UNL1        0.0305
     17 C         140.6590  142.6550  168.6395 C.ar    1  UNL1        0.0004
     18 C         141.3095  143.4774  169.7121 C.ar    1  UNL1       -0.0001
     19 C         142.4474  142.9087  170.5070 C.ar    1  UNL1        0.0031
     20 C         142.9348  141.5175  170.2293 C.ar    1  UNL1        0.0366
     21 C         142.2843  140.6950  169.1566 C.ar    1  UNL1        0.1363
     22 O         142.7716  139.3039  168.8789 O.3     1  UNL1       -0.4717
     23 C         142.8684  138.3063  169.9949 C.3     1  UNL1        0.2525
@<TRIPOS>BOND
     1    14    15    1
     2    15     8    1
     3     8     9   ar
     4     9    10   ar
     5    10    11   ar
     6    11     1    1
     7     1     2   am
     8     2     3    2
     9     2     4    1
    10     4     5    1
    11     4     6    1
    12     4     7    1
    13     7    16    1
    14    16    17   ar
    15    17    18   ar
    16    18    19   ar
    17    19    20   ar
    18    20    21   ar
    19    21    22    1
    20    22    23    1
    21    11    12   ar
    22    12    13   ar
    23    13     8   ar
    24     7     1    1
    25    21    16   ar
