@<TRIPOS>MOLECULE
*****
 38 42 0 0 0
SMALL
GASTEIGER

@<TRIPOS>ATOM
      1 C         141.7597  138.9911  160.1586 C.3     1  UNL1        0.0758
      2 C         142.3388  138.0997  161.2169 C.3     1  UNL1        0.0370
      3 C         141.4762  137.6163  162.3447 C.3     1  UNL1        0.0741
      4 N         140.0344  138.0244  162.4143 N.3     1  UNL1       -0.2688
      5 C         139.4553  138.9158  161.3561 C.3     1  UNL1        0.0741
      6 C         140.3180  139.3992  160.2282 C.3     1  UNL1        0.0370
      7 O         142.1453  137.2796  157.7251 O.2     1  UNL1       -0.2526
      8 C         142.8152  138.6188  157.8139 C.2     1  UNL1        0.3041
      9 N         142.6224  139.4745  159.0306 N.am    1  UNL1       -0.2903
     10 N         143.6778  139.1022  156.6860 N.am    1  UNL1       -0.2621
     11 C         144.4076  140.4116  156.6329 C.3     1  UNL1        0.0953
     12 C         145.1430  140.4798  155.3272 C.3     1  UNL1        0.0236
     13 C         144.8676  139.2125  154.5734 C.3     1  UNL1        0.0262
     14 C         143.9621  138.3611  155.4132 C.3     1  UNL1        0.0994
     15 H         143.0620  140.3535  159.0889 H       1  UNL1        0.1509
     16 C         143.4336  137.0065  155.0449 C.ar    1  UNL1       -0.0041
     17 C         142.2825  136.8844  154.0908 C.ar    1  UNL1       -0.0004
     18 C         141.7541  135.5298  153.7226 C.ar    1  UNL1        0.0294
     19 C         142.3766  134.2971  154.3084 C.ar    1  UNL1        0.1401
     20 F         141.8481  132.9425  153.9401 F       1  UNL1       -0.2042
     21 C         143.5276  134.4192  155.2625 C.ar    1  UNL1        0.0294
     22 C         144.0561  135.7739  155.6307 C.ar    1  UNL1       -0.0004
     23 C         139.1717  137.5410  163.5423 C.3     1  UNL1        0.1007
     24 C         139.1983  138.2500  164.8639 C.ar    1  UNL1        0.0129
     25 C         138.1050  138.2419  165.8908 C.ar    1  UNL1        0.0176
     26 C         138.5538  139.0784  167.0522 C.ar    1  UNL1        0.0799
     27 N         139.9246  139.6035  166.7430 N.ar    1  UNL1       -0.3038
     28 C         140.3228  139.0914  165.3906 C.ar    1  UNL1        0.0772
     29 C         140.7517  140.4857  167.6305 C.ar    1  UNL1        0.0640
     30 C         140.3126  141.8926  167.9088 C.ar    1  UNL1        0.0175
     31 C         141.1397  142.7748  168.7963 C.ar    1  UNL1        0.0053
     32 C         142.4060  142.2500  169.4054 C.ar    1  UNL1        0.0715
     33 C         142.8451  140.8430  169.1271 C.ar    1  UNL1        0.0053
     34 C         142.0180  139.9608  168.2396 C.ar    1  UNL1        0.0175
     35 C         143.2331  143.1322  170.2928 C.3     1  UNL1        0.4186
     36 F         144.0603  144.0143  171.1803 F       1  UNL1       -0.1659
     37 F         142.0336  143.9942  170.5539 F       1  UNL1       -0.1659
     38 F         144.4327  142.2701  170.0318 F       1  UNL1       -0.1659
@<TRIPOS>BOND
     1     7     8    2
     2     8     9   am
     3     9     1    1
     4     1     2    1
     5     2     3    1
     6     3     4    1
     7     4    23    1
     8    23    24    1
     9    24    25   ar
    10    25    26   ar
    11    26    27   ar
    12    27    29    1
    13    29    30   ar
    14    30    31   ar
    15    31    32   ar
    16    32    35    1
    17    35    36    1
    18    35    37    1
    19    35    38    1
    20    32    33   ar
    21    33    34   ar
    22    27    28   ar
    23     4     5    1
    24     5     6    1
    25     8    10   am
    26    10    11    1
    27    11    12    1
    28    12    13    1
    29    13    14    1
    30    14    16    1
    31    16    17   ar
    32    17    18   ar
    33    18    19   ar
    34    19    20    1
    35    19    21   ar
    36    21    22   ar
    37     6     1    1
    38    14    10    1
    39    22    16   ar
    40    28    24   ar
    41    34    29   ar
    42     9    15    1
@<TRIPOS>MOLECULE
*****
 38 42 0 0 0
SMALL
GASTEIGER

@<TRIPOS>ATOM
      1 C         141.3530  137.1867  156.7212 C.3     1  UNL1        0.0758
      2 C         142.6309  137.6138  157.3804 C.3     1  UNL1        0.0370
      3 C         142.5911  138.5009  158.5892 C.3     1  UNL1        0.0741
      4 N         141.2734  138.9610  159.1389 N.3     1  UNL1       -0.2688
      5 C         139.9956  138.5339  158.4797 C.3     1  UNL1        0.0741
      6 C         140.0353  137.6468  157.2708 C.3     1  UNL1        0.0370
      7 O         142.5832  134.4566  156.9038 O.2     1  UNL1       -0.2526
      8 C         142.0078  134.9345  155.6036 C.2     1  UNL1        0.3041
      9 N         141.3927  136.2995  155.5123 N.am    1  UNL1       -0.2903
     10 N         142.0475  134.0473  154.3947 N.am    1  UNL1       -0.2621
     11 C         141.5148  134.3868  153.0342 C.3     1  UNL1        0.0953
     12 C         141.7650  133.2142  152.1327 C.3     1  UNL1        0.0236
     13 C         142.4523  132.1502  152.9361 C.3     1  UNL1        0.0262
     14 C         142.6269  132.6651  154.3341 C.3     1  UNL1        0.0994
     15 H         141.0151  136.6132  154.6589 H       1  UNL1        0.1509
     16 C         143.2683  131.9273  155.4717 C.ar    1  UNL1       -0.0041
     17 C         142.5686  130.7565  156.0958 C.ar    1  UNL1       -0.0004
     18 C         143.2101  130.0188  157.2335 C.ar    1  UNL1        0.0294
     19 C         144.5512  130.4519  157.7472 C.ar    1  UNL1        0.1401
     20 F         145.1926  129.7141  158.8848 F       1  UNL1       -0.2042
     21 C         145.2509  131.6228  157.1231 C.ar    1  UNL1        0.0294
     22 C         144.6094  132.3605  155.9854 C.ar    1  UNL1       -0.0004
     23 C         141.2337  139.8482  160.3478 C.3     1  UNL1        0.1007
     24 C         141.2235  139.2447  161.7210 C.ar    1  UNL1        0.0129
     25 C         141.3834  137.7890  162.0454 C.ar    1  UNL1        0.0176
     26 C         141.3103  137.6355  163.5358 C.ar    1  UNL1        0.0799
     27 N         141.1051  138.9964  164.1324 N.ar    1  UNL1       -0.3038
     28 C         141.0515  139.9909  163.0108 C.ar    1  UNL1        0.0772
     29 C         140.9763  139.3080  165.5940 C.ar    1  UNL1        0.0640
     30 C         139.6265  139.5893  166.1847 C.ar    1  UNL1        0.0175
     31 C         139.4977  139.9009  167.6463 C.ar    1  UNL1        0.0053
     32 C         140.7185  139.9313  168.5171 C.ar    1  UNL1        0.0715
     33 C         142.0683  139.6501  167.9264 C.ar    1  UNL1        0.0053
     34 C         142.1972  139.3384  166.4649 C.ar    1  UNL1        0.0175
     35 C         140.5897  140.2429  169.9787 C.3     1  UNL1        0.4186
     36 F         140.4609  140.5545  171.4404 F       1  UNL1       -0.1659
     37 F         139.6928  141.4002  169.6529 F       1  UNL1       -0.1659
     38 F         141.4866  139.0856  170.3046 F       1  UNL1       -0.1659
@<TRIPOS>BOND
     1     7     8    2
     2     8     9   am
     3     9     1    1
     4     1     2    1
     5     2     3    1
     6     3     4    1
     7     4    23    1
     8    23    24    1
     9    24    25   ar
    10    25    26   ar
    11    26    27   ar
    12    27    29    1
    13    29    30   ar
    14    30    31   ar
    15    31    32   ar
    16    32    35    1
    17    35    36    1
    18    35    37    1
    19    35    38    1
    20    32    33   ar
    21    33    34   ar
    22    27    28   ar
    23     4     5    1
    24     5     6    1
    25     8    10   am
    26    10    11    1
    27    11    12    1
    28    12    13    1
    29    13    14    1
    30    14    16    1
    31    16    17   ar
    32    17    18   ar
    33    18    19   ar
    34    19    20    1
    35    19    21   ar
    36    21    22   ar
    37     6     1    1
    38    14    10    1
    39    22    16   ar
    40    28    24   ar
    41    34    29   ar
    42     9    15    1
@<TRIPOS>MOLECULE
*****
 38 42 0 0 0
SMALL
GASTEIGER

@<TRIPOS>ATOM
      1 C         138.5973  142.4191  159.5646 C.3     1  UNL1        0.0758
      2 C         138.2642  140.9817  159.2948 C.3     1  UNL1        0.0370
      3 C         138.5589  140.3829  157.9515 C.3     1  UNL1        0.0741
      4 N         139.1866  141.2215  156.8779 N.3     1  UNL1       -0.2688
      5 C         139.5197  142.6590  157.1477 C.3     1  UNL1        0.0741
      6 C         139.2250  143.2577  158.4910 C.3     1  UNL1        0.0370
      7 O         140.7631  142.6039  161.6323 O.2     1  UNL1       -0.2526
      8 C         139.3855  143.1104  161.9418 C.2     1  UNL1        0.3041
      9 N         138.3026  143.0180  160.9080 N.am    1  UNL1       -0.2903
     10 N         139.0908  143.7092  163.2851 N.am    1  UNL1       -0.2621
     11 C         137.7683  144.2546  163.7363 C.3     1  UNL1        0.0953
     12 C         137.9270  144.7503  165.1432 C.3     1  UNL1        0.0236
     13 C         139.3476  144.5112  165.5614 C.3     1  UNL1        0.0262
     14 C         140.0669  143.8678  164.4130 C.3     1  UNL1        0.0994
     15 H         137.3985  143.3504  161.1111 H       1  UNL1        0.1509
     16 C         141.5089  143.4554  164.3956 C.ar    1  UNL1       -0.0041
     17 C         141.8995  142.0747  164.8328 C.ar    1  UNL1       -0.0004
     18 C         143.3416  141.6624  164.8153 C.ar    1  UNL1        0.0294
     19 C         144.3932  142.6307  164.3606 C.ar    1  UNL1        0.1401
     20 F         145.8352  142.2183  164.3432 F       1  UNL1       -0.2042
     21 C         144.0026  144.0114  163.9235 C.ar    1  UNL1        0.0294
     22 C         142.5605  144.4237  163.9409 C.ar    1  UNL1       -0.0004
     23 C         139.4813  140.6227  155.5345 C.3     1  UNL1        0.1007
     24 C         139.6596  139.1397  155.3973 C.ar    1  UNL1        0.0129
     25 C         138.6388  138.1738  154.8728 C.ar    1  UNL1        0.0176
     26 C         139.2383  136.7993  154.9118 C.ar    1  UNL1        0.0799
     27 N         140.6296  136.9157  155.4603 N.ar    1  UNL1       -0.3038
     28 C         140.8899  138.3622  155.7604 C.ar    1  UNL1        0.0772
     29 C         141.5915  135.7844  155.6717 C.ar    1  UNL1        0.0640
     30 C         142.7620  135.9575  156.5936 C.ar    1  UNL1        0.0175
     31 C         143.7239  134.8262  156.8050 C.ar    1  UNL1        0.0053
     32 C         143.5154  133.5218  156.0945 C.ar    1  UNL1        0.0715
     33 C         142.3449  133.3486  155.1726 C.ar    1  UNL1        0.0053
     34 C         141.3830  134.4799  154.9612 C.ar    1  UNL1        0.0175
     35 C         144.4773  132.3904  156.3059 C.3     1  UNL1        0.4186
     36 F         145.4393  131.2590  156.5172 F       1  UNL1       -0.1659
     37 F         144.8524  132.9590  157.6423 F       1  UNL1       -0.1659
     38 F         144.1023  131.8218  154.9694 F       1  UNL1       -0.1659
@<TRIPOS>BOND
     1     7     8    2
     2     8     9   am
     3     9     1    1
     4     1     2    1
     5     2     3    1
     6     3     4    1
     7     4    23    1
     8    23    24    1
     9    24    25   ar
    10    25    26   ar
    11    26    27   ar
    12    27    29    1
    13    29    30   ar
    14    30    31   ar
    15    31    32   ar
    16    32    35    1
    17    35    36    1
    18    35    37    1
    19    35    38    1
    20    32    33   ar
    21    33    34   ar
    22    27    28   ar
    23     4     5    1
    24     5     6    1
    25     8    10   am
    26    10    11    1
    27    11    12    1
    28    12    13    1
    29    13    14    1
    30    14    16    1
    31    16    17   ar
    32    17    18   ar
    33    18    19   ar
    34    19    20    1
    35    19    21   ar
    36    21    22   ar
    37     6     1    1
    38    14    10    1
    39    22    16   ar
    40    28    24   ar
    41    34    29   ar
    42     9    15    1
@<TRIPOS>MOLECULE
*****
 38 42 0 0 0
SMALL
GASTEIGER

@<TRIPOS>ATOM
      1 C         143.1534  138.9716  161.6301 C.3     1  UNL1        0.0758
      2 C         143.6465  140.0622  160.7260 C.3     1  UNL1        0.0370
      3 C         143.6645  139.8542  159.2407 C.3     1  UNL1        0.0741
      4 N         143.1895  138.5556  158.6594 N.3     1  UNL1       -0.2688
      5 C         142.6964  137.4650  159.5634 C.3     1  UNL1        0.0741
      6 C         142.6784  137.6730  161.0488 C.3     1  UNL1        0.0370
      7 O         141.2011  140.8939  162.8521 O.2     1  UNL1       -0.2526
      8 C         142.1592  140.1407  163.7265 C.2     1  UNL1        0.3041
      9 N         143.1354  139.1795  163.1156 N.am    1  UNL1       -0.2903
     10 N         142.1412  140.3486  165.2120 N.am    1  UNL1       -0.2621
     11 C         143.0341  139.6700  166.2081 C.3     1  UNL1        0.0953
     12 C         142.6718  140.1737  167.5738 C.3     1  UNL1        0.0236
     13 C         141.5550  141.1635  167.4217 C.3     1  UNL1        0.0262
     14 C         141.2271  141.2716  165.9620 C.3     1  UNL1        0.0994
     15 H         143.7642  138.6852  163.6895 H       1  UNL1        0.1509
     16 C         140.1706  142.1486  165.3583 C.ar    1  UNL1       -0.0041
     17 C         140.4692  143.5890  165.0646 C.ar    1  UNL1       -0.0004
     18 C         139.4126  144.4660  164.4609 C.ar    1  UNL1        0.0294
     19 C         138.0574  143.9027  164.1508 C.ar    1  UNL1        0.1401
     20 F         137.0009  144.7798  163.5471 F       1  UNL1       -0.2042
     21 C         137.7588  142.4624  164.4444 C.ar    1  UNL1        0.0294
     22 C         138.8153  141.5854  165.0482 C.ar    1  UNL1       -0.0004
     23 C         143.2075  138.3476  157.1739 C.3     1  UNL1        0.1007
     24 C         142.8111  137.0208  156.5975 C.ar    1  UNL1        0.0129
     25 C         141.4567  136.6612  156.0623 C.ar    1  UNL1        0.0176
     26 C         141.5080  135.2388  155.5891 C.ar    1  UNL1        0.0799
     27 N         142.8941  134.7192  155.8317 N.ar    1  UNL1       -0.3038
     28 C         143.6994  135.8206  156.4550 C.ar    1  UNL1        0.0772
     29 C         143.3881  133.3404  155.5080 C.ar    1  UNL1        0.0640
     30 C         144.4167  132.6875  156.3830 C.ar    1  UNL1        0.0175
     31 C         144.9107  131.3087  156.0593 C.ar    1  UNL1        0.0053
     32 C         144.3761  130.5827  154.8606 C.ar    1  UNL1        0.0715
     33 C         143.3475  131.2355  153.9855 C.ar    1  UNL1        0.0053
     34 C         142.8535  132.6144  154.3092 C.ar    1  UNL1        0.0175
     35 C         144.8701  129.2039  154.5369 C.3     1  UNL1        0.4186
     36 F         145.3640  127.8250  154.2132 F       1  UNL1       -0.1659
     37 F         145.1062  129.6222  153.1159 F       1  UNL1       -0.1659
     38 F         144.6339  128.7856  155.9579 F       1  UNL1       -0.1659
@<TRIPOS>BOND
     1     7     8    2
     2     8     9   am
     3     9     1    1
     4     1     2    1
     5     2     3    1
     6     3     4    1
     7     4    23    1
     8    23    24    1
     9    24    25   ar
    10    25    26   ar
    11    26    27   ar
    12    27    29    1
    13    29    30   ar
    14    30    31   ar
    15    31    32   ar
    16    32    35    1
    17    35    36    1
    18    35    37    1
    19    35    38    1
    20    32    33   ar
    21    33    34   ar
    22    27    28   ar
    23     4     5    1
    24     5     6    1
    25     8    10   am
    26    10    11    1
    27    11    12    1
    28    12    13    1
    29    13    14    1
    30    14    16    1
    31    16    17   ar
    32    17    18   ar
    33    18    19   ar
    34    19    20    1
    35    19    21   ar
    36    21    22   ar
    37     6     1    1
    38    14    10    1
    39    22    16   ar
    40    28    24   ar
    41    34    29   ar
    42     9    15    1
@<TRIPOS>MOLECULE
*****
 38 42 0 0 0
SMALL
GASTEIGER

@<TRIPOS>ATOM
      1 C         139.2469  141.8494  158.0864 C.3     1  UNL1        0.0758
      2 C         138.7839  141.5386  159.4788 C.3     1  UNL1        0.0370
      3 C         138.9609  142.5508  160.5715 C.3     1  UNL1        0.0741
      4 N         139.6008  143.8739  160.2717 N.3     1  UNL1       -0.2688
      5 C         140.0638  144.1847  158.8793 C.3     1  UNL1        0.0741
      6 C         139.8868  143.1725  157.7866 C.3     1  UNL1        0.0370
      7 O         136.5494  141.4473  156.8366 O.2     1  UNL1       -0.2526
      8 C         137.7212  140.6361  156.3688 C.2     1  UNL1        0.3041
      9 N         139.0699  140.8371  156.9936 N.am    1  UNL1       -0.2903
     10 N         137.5442  139.6238  155.2760 N.am    1  UNL1       -0.2621
     11 C         138.6175  138.7438  154.7071 C.3     1  UNL1        0.0953
     12 C         137.9996  137.8899  153.6398 C.3     1  UNL1        0.0236
     13 C         136.5443  138.2422  153.5492 C.3     1  UNL1        0.0262
     14 C         136.2629  139.3138  154.5604 C.3     1  UNL1        0.0994
     15 H         139.8390  140.3047  156.6866 H       1  UNL1        0.1509
     16 C         134.9336  139.9616  154.8118 C.ar    1  UNL1       -0.0041
     17 C         134.0767  139.4974  155.9521 C.ar    1  UNL1       -0.0004
     18 C         132.7474  140.1453  156.2035 C.ar    1  UNL1        0.0294
     19 C         132.2750  141.2575  155.3147 C.ar    1  UNL1        0.1401
     20 F         130.9457  141.9053  155.5661 F       1  UNL1       -0.2042
     21 C         133.1319  141.7217  154.1744 C.ar    1  UNL1        0.0294
     22 C         134.4612  141.0738  153.9230 C.ar    1  UNL1       -0.0004
     23 C         139.7778  144.8862  161.3645 C.3     1  UNL1        0.1007
     24 C         139.6508  144.4701  162.8000 C.ar    1  UNL1        0.0129
     25 C         138.4520  144.6814  163.6764 C.ar    1  UNL1        0.0176
     26 C         138.7605  144.1116  165.0292 C.ar    1  UNL1        0.0799
     27 N         140.1502  143.5482  164.9889 N.ar    1  UNL1       -0.3038
     28 C         140.7004  143.7698  163.6112 C.ar    1  UNL1        0.0772
     29 C         140.8642  142.8805  166.1266 C.ar    1  UNL1        0.0640
     30 C         140.3094  142.9717  167.5171 C.ar    1  UNL1        0.0175
     31 C         141.0234  142.3040  168.6548 C.ar    1  UNL1        0.0053
     32 C         142.2922  141.5451  168.4019 C.ar    1  UNL1        0.0715
     33 C         142.8471  141.4538  167.0113 C.ar    1  UNL1        0.0053
     34 C         142.1331  142.1216  165.8736 C.ar    1  UNL1        0.0175
     35 C         143.0062  140.8774  169.5396 C.3     1  UNL1        0.4186
     36 F         143.7203  140.2097  170.6773 F       1  UNL1       -0.1659
     37 F         142.4164  139.5587  169.1358 F       1  UNL1       -0.1659
     38 F         143.5962  142.1961  169.9434 F       1  UNL1       -0.1659
@<TRIPOS>BOND
     1     7     8    2
     2     8     9   am
     3     9     1    1
     4     1     2    1
     5     2     3    1
     6     3     4    1
     7     4    23    1
     8    23    24    1
     9    24    25   ar
    10    25    26   ar
    11    26    27   ar
    12    27    29    1
    13    29    30   ar
    14    30    31   ar
    15    31    32   ar
    16    32    35    1
    17    35    36    1
    18    35    37    1
    19    35    38    1
    20    32    33   ar
    21    33    34   ar
    22    27    28   ar
    23     4     5    1
    24     5     6    1
    25     8    10   am
    26    10    11    1
    27    11    12    1
    28    12    13    1
    29    13    14    1
    30    14    16    1
    31    16    17   ar
    32    17    18   ar
    33    18    19   ar
    34    19    20    1
    35    19    21   ar
    36    21    22   ar
    37     6     1    1
    38    14    10    1
    39    22    16   ar
    40    28    24   ar
    41    34    29   ar
    42     9    15    1
@<TRIPOS>MOLECULE
*****
 38 42 0 0 0
SMALL
GASTEIGER

@<TRIPOS>ATOM
      1 C         143.4889  139.1738  161.0610 C.3     1  UNL1        0.0758
      2 C         142.9458  138.0854  160.1833 C.3     1  UNL1        0.0370
      3 C         142.9666  138.2442  158.6919 C.3     1  UNL1        0.0741
      4 N         143.5305  139.4914  158.0782 N.3     1  UNL1       -0.2688
      5 C         144.0736  140.5798  158.9560 C.3     1  UNL1        0.0741
      6 C         144.0528  140.4210  160.4474 C.3     1  UNL1        0.0370
      7 O         141.5518  140.7622  162.7118 O.2     1  UNL1       -0.2526
      8 C         142.4996  139.8092  163.3778 C.2     1  UNL1        0.3041
      9 N         143.4681  139.0150  162.5525 N.am    1  UNL1       -0.2903
     10 N         142.4788  139.6504  164.8693 N.am    1  UNL1       -0.2621
     11 C         143.3617  138.7410  165.6715 C.3     1  UNL1        0.0953
     12 C         143.0000  138.9017  167.1184 C.3     1  UNL1        0.0236
     13 C         141.8936  139.9104  167.2104 C.3     1  UNL1        0.0262
     14 C         141.5715  140.3732  165.8204 C.3     1  UNL1        0.0994
     15 H         144.0901  138.3895  162.9897 H       1  UNL1        0.1509
     16 C         140.5258  141.3816  165.4469 C.ar    1  UNL1       -0.0041
     17 C         140.8581  142.8443  165.4533 C.ar    1  UNL1       -0.0004
     18 C         139.8123  143.8526  165.0798 C.ar    1  UNL1        0.0294
     19 C         138.4341  143.3983  164.7000 C.ar    1  UNL1        0.1401
     20 F         137.3884  144.4067  164.3265 F       1  UNL1       -0.2042
     21 C         138.1018  141.9356  164.6936 C.ar    1  UNL1        0.0294
     22 C         139.1476  140.9273  165.0671 C.ar    1  UNL1       -0.0004
     23 C         143.5513  139.6502  156.5867 C.3     1  UNL1        0.1007
     24 C         144.4260  140.6925  155.9556 C.ar    1  UNL1        0.0129
     25 C         143.9769  142.0306  155.4477 C.ar    1  UNL1        0.0176
     26 C         145.1767  142.7449  154.8997 C.ar    1  UNL1        0.0799
     27 N         146.3673  141.8483  155.0689 N.ar    1  UNL1       -0.3038
     28 C         145.9033  140.5799  155.7215 C.ar    1  UNL1        0.0772
     29 C         147.7748  142.1646  154.6578 C.ar    1  UNL1        0.0640
     30 C         148.9274  141.5413  155.3877 C.ar    1  UNL1        0.0175
     31 C         150.3348  141.8576  154.9765 C.ar    1  UNL1        0.0053
     32 C         150.5896  142.7972  153.8355 C.ar    1  UNL1        0.0715
     33 C         149.4370  143.4205  153.1055 C.ar    1  UNL1        0.0053
     34 C         148.0296  143.1042  153.5166 C.ar    1  UNL1        0.0175
     35 C         151.9970  143.1135  153.4243 C.3     1  UNL1        0.4186
     36 F         153.4045  143.4297  153.0131 F       1  UNL1       -0.1659
     37 F         151.6076  144.5431  153.1912 F       1  UNL1       -0.1659
     38 F         152.3865  141.6837  153.6574 F       1  UNL1       -0.1659
@<TRIPOS>BOND
     1     7     8    2
     2     8     9   am
     3     9     1    1
     4     1     2    1
     5     2     3    1
     6     3     4    1
     7     4    23    1
     8    23    24    1
     9    24    25   ar
    10    25    26   ar
    11    26    27   ar
    12    27    29    1
    13    29    30   ar
    14    30    31   ar
    15    31    32   ar
    16    32    35    1
    17    35    36    1
    18    35    37    1
    19    35    38    1
    20    32    33   ar
    21    33    34   ar
    22    27    28   ar
    23     4     5    1
    24     5     6    1
    25     8    10   am
    26    10    11    1
    27    11    12    1
    28    12    13    1
    29    13    14    1
    30    14    16    1
    31    16    17   ar
    32    17    18   ar
    33    18    19   ar
    34    19    20    1
    35    19    21   ar
    36    21    22   ar
    37     6     1    1
    38    14    10    1
    39    22    16   ar
    40    28    24   ar
    41    34    29   ar
    42     9    15    1
@<TRIPOS>MOLECULE
*****
 38 42 0 0 0
SMALL
GASTEIGER

@<TRIPOS>ATOM
      1 C         140.6488  138.4383  160.9272 C.3     1  UNL1        0.0758
      2 C         142.0619  138.0724  160.5821 C.3     1  UNL1        0.0370
      3 C         142.4543  137.8651  159.1493 C.3     1  UNL1        0.0741
      4 N         141.4336  138.0237  158.0616 N.3     1  UNL1       -0.2688
      5 C         140.0205  138.3896  158.4067 C.3     1  UNL1        0.0741
      6 C         139.6281  138.5969  159.8395 C.3     1  UNL1        0.0370
      7 O         141.5677  140.8881  162.3949 O.2     1  UNL1       -0.2526
      8 C         140.7157  139.8705  163.0939 C.2     1  UNL1        0.3041
      9 N         140.2562  138.6456  162.3601 N.am    1  UNL1       -0.2903
     10 N         140.3232  140.0778  164.5267 N.am    1  UNL1       -0.2621
     11 C         139.4799  139.1522  165.3526 C.3     1  UNL1        0.0953
     12 C         139.3406  139.7494  166.7216 C.3     1  UNL1        0.0236
     13 C         140.0978  141.0442  166.7417 C.3     1  UNL1        0.0262
     14 C         140.7051  141.2471  165.3852 C.3     1  UNL1        0.0994
     15 H         139.6971  137.9778  162.8189 H       1  UNL1        0.1509
     16 C         141.5464  142.4144  164.9615 C.ar    1  UNL1       -0.0041
     17 C         143.0363  142.3647  165.1279 C.ar    1  UNL1       -0.0004
     18 C         143.8776  143.5320  164.7041 C.ar    1  UNL1        0.0294
     19 C         143.2291  144.7491  164.1140 C.ar    1  UNL1        0.1401
     20 F         144.0705  145.9163  163.6903 F       1  UNL1       -0.2042
     21 C         141.7392  144.7988  163.9477 C.ar    1  UNL1        0.0294
     22 C         140.8979  143.6315  164.3714 C.ar    1  UNL1       -0.0004
     23 C         141.8261  137.8164  156.6287 C.3     1  UNL1        0.1007
     24 C         141.8382  136.4339  156.0469 C.ar    1  UNL1        0.0129
     25 C         141.0202  135.9603  154.8823 C.ar    1  UNL1        0.0176
     26 C         141.3468  134.5160  154.6431 C.ar    1  UNL1        0.0799
     27 N         142.3668  134.0969  155.6601 N.ar    1  UNL1       -0.3038
     28 C         142.6705  135.2822  156.5276 C.ar    1  UNL1        0.0772
     29 C         142.9761  132.7321  155.7871 C.ar    1  UNL1        0.0640
     30 C         143.2563  131.9186  154.5585 C.ar    1  UNL1        0.0175
     31 C         143.8656  130.5538  154.6855 C.ar    1  UNL1        0.0053
     32 C         144.1947  130.0026  156.0411 C.ar    1  UNL1        0.0715
     33 C         143.9145  130.8161  157.2697 C.ar    1  UNL1        0.0053
     34 C         143.3052  132.1809  157.1427 C.ar    1  UNL1        0.0175
     35 C         144.8039  128.6378  156.1681 C.3     1  UNL1        0.4186
     36 F         145.4132  127.2730  156.2952 F       1  UNL1       -0.1659
     37 F         145.5152  128.8338  154.8621 F       1  UNL1       -0.1659
     38 F         144.0926  128.4418  157.4741 F       1  UNL1       -0.1659
@<TRIPOS>BOND
     1     7     8    2
     2     8     9   am
     3     9     1    1
     4     1     2    1
     5     2     3    1
     6     3     4    1
     7     4    23    1
     8    23    24    1
     9    24    25   ar
    10    25    26   ar
    11    26    27   ar
    12    27    29    1
    13    29    30   ar
    14    30    31   ar
    15    31    32   ar
    16    32    35    1
    17    35    36    1
    18    35    37    1
    19    35    38    1
    20    32    33   ar
    21    33    34   ar
    22    27    28   ar
    23     4     5    1
    24     5     6    1
    25     8    10   am
    26    10    11    1
    27    11    12    1
    28    12    13    1
    29    13    14    1
    30    14    16    1
    31    16    17   ar
    32    17    18   ar
    33    18    19   ar
    34    19    20    1
    35    19    21   ar
    36    21    22   ar
    37     6     1    1
    38    14    10    1
    39    22    16   ar
    40    28    24   ar
    41    34    29   ar
    42     9    15    1
@<TRIPOS>MOLECULE
*****
 38 42 0 0 0
SMALL
GASTEIGER

@<TRIPOS>ATOM
      1 C         141.1809  138.5147  160.9876 C.3     1  UNL1        0.0758
      2 C         142.5495  138.1567  160.4889 C.3     1  UNL1        0.0370
      3 C         142.7611  137.8464  159.0367 C.3     1  UNL1        0.0741
      4 N         141.6041  137.8942  158.0832 N.3     1  UNL1       -0.2688
      5 C         140.2355  138.2522  158.5819 C.3     1  UNL1        0.0741
      6 C         140.0239  138.5625  160.0341 C.3     1  UNL1        0.0370
      7 O         140.6112  141.3303  161.8524 O.2     1  UNL1       -0.2526
      8 C         140.6844  140.2328  162.8722 C.2     1  UNL1        0.3041
      9 N         140.9693  138.8250  162.4399 N.am    1  UNL1       -0.2903
     10 N         140.4728  140.5431  164.3245 N.am    1  UNL1       -0.2621
     11 C         140.5156  139.5552  165.4524 C.3     1  UNL1        0.0953
     12 C         140.2505  140.2972  166.7288 C.3     1  UNL1        0.0236
     13 C         140.0438  141.7437  166.3897 C.3     1  UNL1        0.0262
     14 C         140.1812  141.8956  164.9037 C.3     1  UNL1        0.0994
     15 H         141.0173  138.1047  163.1092 H       1  UNL1        0.1509
     16 C         140.0500  143.1754  164.1324 C.ar    1  UNL1       -0.0041
     17 C         138.7171  143.5843  163.5790 C.ar    1  UNL1       -0.0004
     18 C         138.5860  144.8641  162.8076 C.ar    1  UNL1        0.0294
     19 C         139.7877  145.7350  162.5896 C.ar    1  UNL1        0.1401
     20 F         139.6565  147.0147  161.8183 F       1  UNL1       -0.2042
     21 C         141.1206  145.3260  163.1430 C.ar    1  UNL1        0.0294
     22 C         141.2517  144.0463  163.9144 C.ar    1  UNL1       -0.0004
     23 C         141.8157  137.5839  156.6309 C.3     1  UNL1        0.1007
     24 C         141.8619  136.1580  156.1677 C.ar    1  UNL1        0.0129
     25 C         141.1925  135.6065  154.9439 C.ar    1  UNL1        0.0176
     26 C         141.5025  134.1409  154.8666 C.ar    1  UNL1        0.0799
     27 N         142.3635  133.7866  156.0428 N.ar    1  UNL1       -0.3038
     28 C         142.5856  135.0333  156.8468 C.ar    1  UNL1        0.0772
     29 C         142.9069  132.4248  156.3593 C.ar    1  UNL1        0.0640
     30 C         144.0585  132.2790  157.3092 C.ar    1  UNL1        0.0175
     31 C         144.6020  130.9172  157.6257 C.ar    1  UNL1        0.0053
     32 C         143.9938  129.7012  156.9922 C.ar    1  UNL1        0.0715
     33 C         142.8421  129.8470  156.0422 C.ar    1  UNL1        0.0053
     34 C         142.2987  131.2087  155.7258 C.ar    1  UNL1        0.0175
     35 C         144.5372  128.3394  157.3087 C.3     1  UNL1        0.4186
     36 F         145.0807  126.9776  157.6252 F       1  UNL1       -0.1659
     37 F         143.6798  127.7466  156.2301 F       1  UNL1       -0.1659
     38 F         145.3946  128.9322  158.3874 F       1  UNL1       -0.1659
@<TRIPOS>BOND
     1     7     8    2
     2     8     9   am
     3     9     1    1
     4     1     2    1
     5     2     3    1
     6     3     4    1
     7     4    23    1
     8    23    24    1
     9    24    25   ar
    10    25    26   ar
    11    26    27   ar
    12    27    29    1
    13    29    30   ar
    14    30    31   ar
    15    31    32   ar
    16    32    35    1
    17    35    36    1
    18    35    37    1
    19    35    38    1
    20    32    33   ar
    21    33    34   ar
    22    27    28   ar
    23     4     5    1
    24     5     6    1
    25     8    10   am
    26    10    11    1
    27    11    12    1
    28    12    13    1
    29    13    14    1
    30    14    16    1
    31    16    17   ar
    32    17    18   ar
    33    18    19   ar
    34    19    20    1
    35    19    21   ar
    36    21    22   ar
    37     6     1    1
    38    14    10    1
    39    22    16   ar
    40    28    24   ar
    41    34    29   ar
    42     9    15    1
@<TRIPOS>MOLECULE
*****
 38 42 0 0 0
SMALL
GASTEIGER

@<TRIPOS>ATOM
      1 C         143.6477  140.4792  160.3429 C.3     1  UNL1        0.0758
      2 C         144.1862  141.8494  160.0557 C.3     1  UNL1        0.0370
      3 C         144.1829  142.3774  158.6517 C.3     1  UNL1        0.0741
      4 N         143.6411  141.5352  157.5350 N.3     1  UNL1       -0.2688
      5 C         143.1026  140.1650  157.8222 C.3     1  UNL1        0.0741
      6 C         143.1059  139.6370  159.2262 C.3     1  UNL1        0.0370
      7 O         141.6468  141.4970  162.3331 O.2     1  UNL1       -0.2526
      8 C         142.6506  140.4600  162.7420 C.2     1  UNL1        0.3041
      9 N         143.6510  139.9511  161.7469 N.am    1  UNL1       -0.2903
     10 N         142.6539  139.9319  164.1460 N.am    1  UNL1       -0.2621
     11 C         143.5920  138.8995  164.6974 C.3     1  UNL1        0.0953
     12 C         143.2376  138.6730  166.1373 C.3     1  UNL1        0.0236
     13 C         142.0805  139.5656  166.4757 C.3     1  UNL1        0.0262
     14 C         141.7197  140.3436  165.2450 C.3     1  UNL1        0.0994
     15 H         144.3098  139.2706  162.0153 H       1  UNL1        0.1509
     16 C         140.6183  141.3556  165.1330 C.ar    1  UNL1       -0.0041
     17 C         139.2453  140.9259  164.7081 C.ar    1  UNL1       -0.0004
     18 C         138.1439  141.9380  164.5961 C.ar    1  UNL1        0.0294
     19 C         138.4153  143.3797  164.9089 C.ar    1  UNL1        0.1401
     20 F         137.3138  144.3917  164.7969 F       1  UNL1       -0.2042
     21 C         139.7882  143.8093  165.3338 C.ar    1  UNL1        0.0294
     22 C         140.8897  142.7973  165.4458 C.ar    1  UNL1       -0.0004
     23 C         143.6378  142.0633  156.1310 C.3     1  UNL1        0.1007
     24 C         142.4837  142.8875  155.6424 C.ar    1  UNL1        0.0129
     25 C         141.3479  142.3983  154.7934 C.ar    1  UNL1        0.0176
     26 C         140.4250  143.5540  154.5433 C.ar    1  UNL1        0.0799
     27 N         140.9903  144.7575  155.2377 N.ar    1  UNL1       -0.3038
     28 C         142.2627  144.3455  155.9170 C.ar    1  UNL1        0.0772
     29 C         140.3889  146.1315  155.2506 C.ar    1  UNL1        0.0640
     30 C         139.5743  146.5827  156.4265 C.ar    1  UNL1        0.0175
     31 C         138.9729  147.9568  156.4393 C.ar    1  UNL1        0.0053
     32 C         139.1861  148.8797  155.2764 C.ar    1  UNL1        0.0715
     33 C         140.0008  148.4286  154.1004 C.ar    1  UNL1        0.0053
     34 C         140.6022  147.0545  154.0875 C.ar    1  UNL1        0.0175
     35 C         138.5847  150.2538  155.2893 C.3     1  UNL1        0.4186
     36 F         137.9833  151.6279  155.3022 F       1  UNL1       -0.1659
     37 F         139.1967  150.5342  153.9488 F       1  UNL1       -0.1659
     38 F         137.9727  149.9734  156.6298 F       1  UNL1       -0.1659
@<TRIPOS>BOND
     1     7     8    2
     2     8     9   am
     3     9     1    1
     4     1     2    1
     5     2     3    1
     6     3     4    1
     7     4    23    1
     8    23    24    1
     9    24    25   ar
    10    25    26   ar
    11    26    27   ar
    12    27    29    1
    13    29    30   ar
    14    30    31   ar
    15    31    32   ar
    16    32    35    1
    17    35    36    1
    18    35    37    1
    19    35    38    1
    20    32    33   ar
    21    33    34   ar
    22    27    28   ar
    23     4     5    1
    24     5     6    1
    25     8    10   am
    26    10    11    1
    27    11    12    1
    28    12    13    1
    29    13    14    1
    30    14    16    1
    31    16    17   ar
    32    17    18   ar
    33    18    19   ar
    34    19    20    1
    35    19    21   ar
    36    21    22   ar
    37     6     1    1
    38    14    10    1
    39    22    16   ar
    40    28    24   ar
    41    34    29   ar
    42     9    15    1
