@<TRIPOS>MOLECULE
*****
 30 33 0 0 0
SMALL
GASTEIGER

@<TRIPOS>ATOM
      1 C         142.0616  141.7013  162.7560 C.ar    1  UNL1        0.1321
      2 N         142.0842  140.6808  161.6569 N.ar    1  UNL1       -0.2290
      3 C         141.5388  139.3048  161.8998 C.ar    1  UNL1        0.1053
      4 C         140.9708  138.9491  163.2418 C.ar    1  UNL1        0.0783
      5 C         140.9482  139.9696  164.3409 C.ar    1  UNL1        0.0380
      6 S         140.4554  139.9095  165.7564 S.2     1  UNL1       -0.0866
      7 C         140.6962  141.2484  166.3883 C.ar    1  UNL1        0.0296
      8 C         141.3378  142.1360  165.3634 C.ar    1  UNL1        0.0098
      9 C         141.4936  141.3457  164.0980 C.ar    1  UNL1        0.0383
     10 C         140.3552  141.6323  167.7976 C.ar    1  UNL1        0.0060
     11 C         139.6944  140.6388  168.7066 C.ar    1  UNL1        0.0005
     12 C         139.3534  141.0228  170.1160 C.ar    1  UNL1        0.0000
     13 C         139.6733  142.4002  170.6164 C.ar    1  UNL1        0.0000
     14 C         140.3341  143.3937  169.7074 C.ar    1  UNL1        0.0000
     15 C         140.6751  143.0097  168.2980 C.ar    1  UNL1        0.0005
     16 C         140.4255  137.5730  163.4846 C.2     1  UNL1        0.2448
     17 N         141.3201  136.4958  164.0223 N.am    1  UNL1       -0.3253
     18 O         138.9854  137.2742  163.1897 O.2     1  UNL1       -0.2703
     19 H         142.2653  136.6919  164.2159 H       1  UNL1        0.1453
     20 H         140.9622  135.5926  164.1817 H       1  UNL1        0.1453
     21 N         142.6069  143.0774  162.5131 N.pl3   1  UNL1       -0.2935
     22 C         141.6858  144.1872  162.1008 C.3     1  UNL1        0.0899
     23 C         141.1570  144.2410  160.6982 C.3     1  UNL1        0.0226
     24 C         140.2360  145.3507  160.2859 C.3     1  UNL1        0.0188
     25 C         139.8437  146.4068  161.2763 C.3     1  UNL1        0.0687
     26 N         140.3725  146.3531  162.6790 N.3     1  UNL1       -0.2961
     27 C         141.2936  145.2432  163.0913 C.3     1  UNL1        0.0886
     28 H         139.5626  146.3087  163.2975 H       1  UNL1        0.1233
     29 C         145.0184  142.2055  162.9310 C.3     1  UNL1        0.0232
     30 C         144.0734  143.3436  162.6825 C.3     1  UNL1        0.0922
@<TRIPOS>BOND
     1    29    30    1
     2    30    21    1
     3    21     1    1
     4     1     2   ar
     5     2     3   ar
     6     3     4   ar
     7     4    16    1
     8    16    17   am
     9    16    18    2
    10     4     5   ar
    11     5     6   ar
    12     6     7   ar
    13     7    10    1
    14    10    11   ar
    15    11    12   ar
    16    12    13   ar
    17    13    14   ar
    18    14    15   ar
    19     7     8   ar
    20     8     9   ar
    21    22    21    1
    22    22    23    1
    23    23    24    1
    24    24    25    1
    25    25    26    1
    26    26    27    1
    27     9     1   ar
    28    27    22    1
    29     9     5   ar
    30    15    10   ar
    31    17    19    1
    32    17    20    1
    33    26    28    1
@<TRIPOS>MOLECULE
*****
 30 33 0 0 0
SMALL
GASTEIGER

@<TRIPOS>ATOM
      1 C         142.7459  142.5849  162.0175 C.ar    1  UNL1        0.1321
      2 N         142.4803  143.5013  160.8601 N.ar    1  UNL1       -0.2290
      3 C         141.3314  144.4641  160.9142 C.ar    1  UNL1        0.1053
      4 C         140.4481  144.5105  162.1257 C.ar    1  UNL1        0.0783
      5 C         140.7137  143.5941  163.2831 C.ar    1  UNL1        0.0380
      6 S         140.0195  143.4139  164.6005 S.2     1  UNL1       -0.0866
      7 C         140.7394  142.3397  165.3606 C.ar    1  UNL1        0.0296
      8 C         141.8785  141.8559  164.5130 C.ar    1  UNL1        0.0098
      9 C         141.8627  142.6312  163.2290 C.ar    1  UNL1        0.0383
     10 C         140.3829  141.8373  166.7283 C.ar    1  UNL1        0.0060
     11 C         140.6143  142.7048  167.9299 C.ar    1  UNL1        0.0005
     12 C         140.2577  142.2024  169.2975 C.ar    1  UNL1        0.0000
     13 C         139.6697  140.8325  169.4636 C.ar    1  UNL1        0.0000
     14 C         139.4382  139.9650  168.2620 C.ar    1  UNL1        0.0000
     15 C         139.7948  140.4674  166.8944 C.ar    1  UNL1        0.0005
     16 C         139.2991  145.4734  162.1797 C.2     1  UNL1        0.2448
     17 N         139.5422  146.9421  161.9958 N.am    1  UNL1       -0.3253
     18 O         137.9072  144.9675  162.4177 O.2     1  UNL1       -0.2703
     19 H         140.4558  147.2741  161.8396 H       1  UNL1        0.1453
     20 H         138.7881  147.5741  162.0313 H       1  UNL1        0.1453
     21 N         143.8949  141.6220  161.9634 N.pl3   1  UNL1       -0.2935
     22 C         143.6952  140.2470  161.3979 C.3     1  UNL1        0.0899
     23 C         143.5151  139.0765  162.3183 C.3     1  UNL1        0.0226
     24 C         143.3154  137.7016  161.7528 C.3     1  UNL1        0.0188
     25 C         143.2958  137.4973  160.2670 C.3     1  UNL1        0.0687
     26 N         143.4758  138.6679  159.3465 N.3     1  UNL1       -0.2961
     27 C         143.6755  140.0429  159.9120 C.3     1  UNL1        0.0886
     28 H         142.6443  138.7098  158.7573 H       1  UNL1        0.1233
     29 C         145.6128  141.7790  163.9060 C.3     1  UNL1        0.0232
     30 C         145.2434  142.0341  162.4747 C.3     1  UNL1        0.0922
@<TRIPOS>BOND
     1    29    30    1
     2    30    21    1
     3    21     1    1
     4     1     2   ar
     5     2     3   ar
     6     3     4   ar
     7     4    16    1
     8    16    17   am
     9    16    18    2
    10     4     5   ar
    11     5     6   ar
    12     6     7   ar
    13     7    10    1
    14    10    11   ar
    15    11    12   ar
    16    12    13   ar
    17    13    14   ar
    18    14    15   ar
    19     7     8   ar
    20     8     9   ar
    21    22    21    1
    22    22    23    1
    23    23    24    1
    24    24    25    1
    25    25    26    1
    26    26    27    1
    27     9     1   ar
    28    27    22    1
    29     9     5   ar
    30    15    10   ar
    31    17    19    1
    32    17    20    1
    33    26    28    1
@<TRIPOS>MOLECULE
*****
 30 33 0 0 0
SMALL
GASTEIGER

@<TRIPOS>ATOM
      1 C         139.4701  141.8008  163.6673 C.ar    1  UNL1        0.1321
      2 N         138.5640  140.7706  163.0610 N.ar    1  UNL1       -0.2290
      3 C         138.1214  139.5899  163.8732 C.ar    1  UNL1        0.1053
      4 C         138.5850  139.4392  165.2919 C.ar    1  UNL1        0.0783
      5 C         139.4911  140.4694  165.8982 C.ar    1  UNL1        0.0380
      6 S         140.1064  140.5874  167.2611 S.2     1  UNL1       -0.0866
      7 C         140.9292  141.8412  167.2911 C.ar    1  UNL1        0.0296
      8 C         140.8225  142.4980  165.9468 C.ar    1  UNL1        0.0098
      9 C         139.9336  141.6502  165.0859 C.ar    1  UNL1        0.0383
     10 C         141.7200  142.3490  168.4602 C.ar    1  UNL1        0.0060
     11 C         143.1643  141.9726  168.6091 C.ar    1  UNL1        0.0005
     12 C         143.9550  142.4805  169.7782 C.ar    1  UNL1        0.0000
     13 C         143.3015  143.3647  170.7985 C.ar    1  UNL1        0.0000
     14 C         141.8571  143.7411  170.6497 C.ar    1  UNL1        0.0000
     15 C         141.0664  143.2332  169.4805 C.ar    1  UNL1        0.0005
     16 C         138.1423  138.2583  166.1041 C.2     1  UNL1        0.2448
     17 N         137.4059  138.4687  167.3938 N.am    1  UNL1       -0.3253
     18 O         138.4362  136.8670  165.6265 O.2     1  UNL1       -0.2703
     19 H         137.2130  139.3818  167.7072 H       1  UNL1        0.1453
     20 H         137.1154  137.6936  167.9269 H       1  UNL1        0.1453
     21 N         139.9127  142.9817  162.8551 N.pl3   1  UNL1       -0.2935
     22 C         141.3714  143.1991  162.5809 C.3     1  UNL1        0.0899
     23 C         142.2632  142.0280  162.2933 C.3     1  UNL1        0.0226
     24 C         143.7218  142.2454  162.0191 C.3     1  UNL1        0.0188
     25 C         144.2885  143.6341  162.0327 C.3     1  UNL1        0.0687
     26 N         143.3967  144.8054  162.3204 N.3     1  UNL1       -0.2961
     27 C         141.9380  144.5879  162.5945 C.3     1  UNL1        0.0886
     28 H         143.4553  145.4255  161.5126 H       1  UNL1        0.1233
     29 C         137.6852  144.2900  163.1315 C.3     1  UNL1        0.0232
     30 C         138.8966  143.9450  162.3169 C.3     1  UNL1        0.0922
@<TRIPOS>BOND
     1    29    30    1
     2    30    21    1
     3    21     1    1
     4     1     2   ar
     5     2     3   ar
     6     3     4   ar
     7     4    16    1
     8    16    17   am
     9    16    18    2
    10     4     5   ar
    11     5     6   ar
    12     6     7   ar
    13     7    10    1
    14    10    11   ar
    15    11    12   ar
    16    12    13   ar
    17    13    14   ar
    18    14    15   ar
    19     7     8   ar
    20     8     9   ar
    21    22    21    1
    22    22    23    1
    23    23    24    1
    24    24    25    1
    25    25    26    1
    26    26    27    1
    27     9     1   ar
    28    27    22    1
    29     9     5   ar
    30    15    10   ar
    31    17    19    1
    32    17    20    1
    33    26    28    1
@<TRIPOS>MOLECULE
*****
 30 33 0 0 0
SMALL
GASTEIGER

@<TRIPOS>ATOM
      1 C         139.0308  141.8264  163.2021 C.ar    1  UNL1        0.1321
      2 N         138.5749  140.6753  162.3554 N.ar    1  UNL1       -0.2290
      3 C         138.7828  139.2674  162.8290 C.ar    1  UNL1        0.1053
      4 C         139.4466  139.0105  164.1494 C.ar    1  UNL1        0.0783
      5 C         139.9026  140.1616  164.9961 C.ar    1  UNL1        0.0380
      6 S         140.5817  140.2176  166.3324 S.2     1  UNL1       -0.0866
      7 C         140.7935  141.6602  166.6846 C.ar    1  UNL1        0.0296
      8 C         140.2453  142.4958  165.5660 C.ar    1  UNL1        0.0098
      9 C         139.6947  141.5696  164.5225 C.ar    1  UNL1        0.0383
     10 C         141.4401  142.1765  167.9358 C.ar    1  UNL1        0.0060
     11 C         140.6616  143.0454  168.8786 C.ar    1  UNL1        0.0005
     12 C         141.3082  143.5617  170.1298 C.ar    1  UNL1        0.0000
     13 C         142.7332  143.2092  170.4381 C.ar    1  UNL1        0.0000
     14 C         143.5117  142.3403  169.4952 C.ar    1  UNL1        0.0000
     15 C         142.8651  141.8240  168.2441 C.ar    1  UNL1        0.0005
     16 C         139.6545  137.6024  164.6230 C.2     1  UNL1        0.2448
     17 N         140.9111  136.8674  164.2616 N.am    1  UNL1       -0.3253
     18 O         138.6057  136.9295  165.4580 O.2     1  UNL1       -0.2703
     19 H         141.5994  137.3091  163.7136 H       1  UNL1        0.1453
     20 H         141.0475  135.9432  164.5724 H       1  UNL1        0.1453
     21 N         138.8229  143.2344  162.7285 N.pl3   1  UNL1       -0.2935
     22 C         139.7208  143.8115  161.6744 C.3     1  UNL1        0.0899
     23 C         139.4786  143.4962  160.2282 C.3     1  UNL1        0.0226
     24 C         140.3764  144.0732  159.1742 C.3     1  UNL1        0.0188
     25 C         141.5166  144.9655  159.5665 C.3     1  UNL1        0.0687
     26 N         141.7588  145.2808  161.0129 N.3     1  UNL1       -0.2961
     27 C         140.8609  144.7038  162.0669 C.3     1  UNL1        0.0886
     28 H         141.7077  146.2953  161.1056 H       1  UNL1        0.1233
     29 C         137.7842  144.5087  164.7403 C.3     1  UNL1        0.0232
     30 C         137.7172  144.0654  163.3088 C.3     1  UNL1        0.0922
@<TRIPOS>BOND
     1    29    30    1
     2    30    21    1
     3    21     1    1
     4     1     2   ar
     5     2     3   ar
     6     3     4   ar
     7     4    16    1
     8    16    17   am
     9    16    18    2
    10     4     5   ar
    11     5     6   ar
    12     6     7   ar
    13     7    10    1
    14    10    11   ar
    15    11    12   ar
    16    12    13   ar
    17    13    14   ar
    18    14    15   ar
    19     7     8   ar
    20     8     9   ar
    21    22    21    1
    22    22    23    1
    23    23    24    1
    24    24    25    1
    25    25    26    1
    26    26    27    1
    27     9     1   ar
    28    27    22    1
    29     9     5   ar
    30    15    10   ar
    31    17    19    1
    32    17    20    1
    33    26    28    1
@<TRIPOS>MOLECULE
*****
 30 33 0 0 0
SMALL
GASTEIGER

@<TRIPOS>ATOM
      1 C         140.9576  143.2385  162.7486 C.ar    1  UNL1        0.1321
      2 N         142.1410  143.4081  161.8427 N.ar    1  UNL1       -0.2290
      3 C         143.5295  143.2315  162.3818 C.ar    1  UNL1        0.1053
      4 C         143.7347  142.8853  163.8269 C.ar    1  UNL1        0.0783
      5 C         142.5513  142.7157  164.7328 C.ar    1  UNL1        0.0380
      6 S         142.4432  142.3780  166.1902 S.2     1  UNL1       -0.0866
      7 C         140.9878  142.3458  166.5518 C.ar    1  UNL1        0.0296
      8 C         140.1964  142.6636  165.3179 C.ar    1  UNL1        0.0098
      9 C         141.1627  142.8923  164.1936 C.ar    1  UNL1        0.0383
     10 C         140.4230  142.0480  167.9092 C.ar    1  UNL1        0.0060
     11 C         139.8135  140.7065  168.1901 C.ar    1  UNL1        0.0005
     12 C         139.2487  140.4088  169.5474 C.ar    1  UNL1        0.0000
     13 C         139.2933  141.4525  170.6238 C.ar    1  UNL1        0.0000
     14 C         139.9027  142.7940  170.3429 C.ar    1  UNL1        0.0000
     15 C         140.4676  143.0917  168.9855 C.ar    1  UNL1        0.0005
     16 C         145.1234  142.7088  164.3659 C.2     1  UNL1        0.2448
     17 N         146.0550  141.7204  163.7294 N.am    1  UNL1       -0.3253
     18 O         145.5803  143.5207  165.5415 O.2     1  UNL1       -0.2703
     19 H         145.7550  141.1875  162.9579 H       1  UNL1        0.1453
     20 H         146.9664  141.6045  164.0832 H       1  UNL1        0.1453
     21 N         139.5690  143.4150  162.2095 N.pl3   1  UNL1       -0.2935
     22 C         138.8428  142.2470  161.6106 C.3     1  UNL1        0.0899
     23 C         139.1799  141.7851  160.2240 C.3     1  UNL1        0.0226
     24 C         138.4538  140.6172  159.6251 C.3     1  UNL1        0.0188
     25 C         137.3904  139.9111  160.4130 C.3     1  UNL1        0.0687
     26 N         137.0532  140.3730  161.7998 N.3     1  UNL1       -0.2961
     27 C         137.7795  141.5410  162.3986 C.3     1  UNL1        0.0886
     28 H         137.2098  139.5791  162.4207 H       1  UNL1        0.1233
     29 C         139.6841  145.9946  161.9227 C.3     1  UNL1        0.0232
     30 C         138.9066  144.7595  162.2691 C.3     1  UNL1        0.0922
@<TRIPOS>BOND
     1    29    30    1
     2    30    21    1
     3    21     1    1
     4     1     2   ar
     5     2     3   ar
     6     3     4   ar
     7     4    16    1
     8    16    17   am
     9    16    18    2
    10     4     5   ar
    11     5     6   ar
    12     6     7   ar
    13     7    10    1
    14    10    11   ar
    15    11    12   ar
    16    12    13   ar
    17    13    14   ar
    18    14    15   ar
    19     7     8   ar
    20     8     9   ar
    21    22    21    1
    22    22    23    1
    23    23    24    1
    24    24    25    1
    25    25    26    1
    26    26    27    1
    27     9     1   ar
    28    27    22    1
    29     9     5   ar
    30    15    10   ar
    31    17    19    1
    32    17    20    1
    33    26    28    1
@<TRIPOS>MOLECULE
*****
 30 33 0 0 0
SMALL
GASTEIGER

@<TRIPOS>ATOM
      1 C         143.1127  141.9001  161.4674 C.ar    1  UNL1        0.1321
      2 N         143.8930  141.5917  160.2240 N.ar    1  UNL1       -0.2290
      3 C         143.7917  140.2352  159.5921 C.ar    1  UNL1        0.1053
      4 C         142.9101  139.1869  160.2035 C.ar    1  UNL1        0.0783
      5 C         142.1297  139.4952  161.4469 C.ar    1  UNL1        0.0380
      6 S         141.1859  138.6697  162.2701 S.2     1  UNL1       -0.0866
      7 C         140.7039  139.5161  163.4108 C.ar    1  UNL1        0.0296
      8 C         141.3498  140.8647  163.2926 C.ar    1  UNL1        0.0098
      9 C         142.2311  140.8518  162.0788 C.ar    1  UNL1        0.0383
     10 C         139.7443  139.0889  164.4817 C.ar    1  UNL1        0.0060
     11 C         139.4507  137.6325  164.6881 C.ar    1  UNL1        0.0005
     12 C         138.4911  137.2054  165.7591 C.ar    1  UNL1        0.0000
     13 C         137.8252  138.2346  166.6235 C.ar    1  UNL1        0.0000
     14 C         138.1188  139.6910  166.4170 C.ar    1  UNL1        0.0000
     15 C         139.0784  140.1181  165.3461 C.ar    1  UNL1        0.0005
     16 C         142.8088  137.8302  159.5715 C.2     1  UNL1        0.2448
     17 N         143.3947  136.6351  160.2630 N.am    1  UNL1       -0.3253
     18 O         142.1217  137.6690  158.2479 O.2     1  UNL1       -0.2703
     19 H         143.8456  136.7410  161.1317 H       1  UNL1        0.1453
     20 H         143.3282  135.7447  159.8482 H       1  UNL1        0.1453
     21 N         143.2140  143.2567  162.0994 N.pl3   1  UNL1       -0.2935
     22 C         142.1036  144.2502  161.9250 C.3     1  UNL1        0.0899
     23 C         141.3936  144.3579  160.6082 C.3     1  UNL1        0.0226
     24 C         140.2833  145.3513  160.4338 C.3     1  UNL1        0.0188
     25 C         139.8831  146.2369  161.5764 C.3     1  UNL1        0.0687
     26 N         140.5931  146.1291  162.8933 N.3     1  UNL1       -0.2961
     27 C         141.7035  145.1357  163.0677 C.3     1  UNL1        0.0886
     28 H         139.8848  145.9048  163.5922 H       1  UNL1        0.1233
     29 C         145.0630  142.6003  163.8023 C.3     1  UNL1        0.0232
     30 C         144.4256  143.6199  162.9056 C.3     1  UNL1        0.0922
@<TRIPOS>BOND
     1    29    30    1
     2    30    21    1
     3    21     1    1
     4     1     2   ar
     5     2     3   ar
     6     3     4   ar
     7     4    16    1
     8    16    17   am
     9    16    18    2
    10     4     5   ar
    11     5     6   ar
    12     6     7   ar
    13     7    10    1
    14    10    11   ar
    15    11    12   ar
    16    12    13   ar
    17    13    14   ar
    18    14    15   ar
    19     7     8   ar
    20     8     9   ar
    21    22    21    1
    22    22    23    1
    23    23    24    1
    24    24    25    1
    25    25    26    1
    26    26    27    1
    27     9     1   ar
    28    27    22    1
    29     9     5   ar
    30    15    10   ar
    31    17    19    1
    32    17    20    1
    33    26    28    1
@<TRIPOS>MOLECULE
*****
 30 33 0 0 0
SMALL
GASTEIGER

@<TRIPOS>ATOM
      1 C         142.6310  141.6632  166.4426 C.ar    1  UNL1        0.1321
      2 N         143.8085  142.5807  166.5893 N.ar    1  UNL1       -0.2290
      3 C         144.2984  143.3667  165.4095 C.ar    1  UNL1        0.1053
      4 C         143.6108  143.2353  164.0828 C.ar    1  UNL1        0.0783
      5 C         142.4332  142.3178  163.9361 C.ar    1  UNL1        0.0380
      6 S         141.5605  141.9847  162.7625 S.2     1  UNL1       -0.0866
      7 C         140.5311  140.9928  163.2171 C.ar    1  UNL1        0.0296
      8 C         140.7677  140.7129  164.6716 C.ar    1  UNL1        0.0098
      9 C         141.9433  141.5318  165.1160 C.ar    1  UNL1        0.0383
     10 C         139.4542  140.3872  162.3665 C.ar    1  UNL1        0.0060
     11 C         138.9702  141.1081  161.1434 C.ar    1  UNL1        0.0005
     12 C         137.8933  140.5024  160.2928 C.ar    1  UNL1        0.0000
     13 C         137.3004  139.1759  160.6654 C.ar    1  UNL1        0.0000
     14 C         137.7844  138.4550  161.8885 C.ar    1  UNL1        0.0000
     15 C         138.8614  139.0607  162.7390 C.ar    1  UNL1        0.0005
     16 C         144.1008  144.0213  162.9029 C.2     1  UNL1        0.2448
     17 N         143.8963  145.5065  162.8540 N.am    1  UNL1       -0.3253
     18 O         144.7952  143.3222  161.7720 O.2     1  UNL1       -0.2703
     19 H         143.4405  145.9654  163.5962 H       1  UNL1        0.1453
     20 H         144.2179  146.0224  162.0796 H       1  UNL1        0.1453
     21 N         142.1411  140.8772  167.6225 N.pl3   1  UNL1       -0.2935
     22 C         141.2803  141.5375  168.6585 C.3     1  UNL1        0.0899
     23 C         141.3506  143.0227  168.8562 C.3     1  UNL1        0.0226
     24 C         140.4899  143.6830  169.8921 C.3     1  UNL1        0.0188
     25 C         139.5590  142.8581  170.7304 C.3     1  UNL1        0.0687
     26 N         139.4887  141.3728  170.5328 N.3     1  UNL1       -0.2961
     27 C         140.3495  140.7125  169.4968 C.3     1  UNL1        0.0886
     28 H         138.5214  141.1527  170.2958 H       1  UNL1        0.1233
     29 C         143.3142  138.7523  166.6960 C.3     1  UNL1        0.0232
     30 C         142.5118  139.4309  167.7664 C.3     1  UNL1        0.0922
@<TRIPOS>BOND
     1    29    30    1
     2    30    21    1
     3    21     1    1
     4     1     2   ar
     5     2     3   ar
     6     3     4   ar
     7     4    16    1
     8    16    17   am
     9    16    18    2
    10     4     5   ar
    11     5     6   ar
    12     6     7   ar
    13     7    10    1
    14    10    11   ar
    15    11    12   ar
    16    12    13   ar
    17    13    14   ar
    18    14    15   ar
    19     7     8   ar
    20     8     9   ar
    21    22    21    1
    22    22    23    1
    23    23    24    1
    24    24    25    1
    25    25    26    1
    26    26    27    1
    27     9     1   ar
    28    27    22    1
    29     9     5   ar
    30    15    10   ar
    31    17    19    1
    32    17    20    1
    33    26    28    1
@<TRIPOS>MOLECULE
*****
 30 33 0 0 0
SMALL
GASTEIGER

@<TRIPOS>ATOM
      1 C         142.3867  142.2550  162.4682 C.ar    1  UNL1        0.1321
      2 N         141.4961  143.0416  161.5527 N.ar    1  UNL1       -0.2290
      3 C         140.2941  143.7506  162.1023 C.ar    1  UNL1        0.1053
      4 C         139.9824  143.6731  163.5676 C.ar    1  UNL1        0.0783
      5 C         140.8730  142.8865  164.4831 C.ar    1  UNL1        0.0380
      6 S         140.8193  142.6312  165.9602 S.2     1  UNL1       -0.0866
      7 C         141.9883  141.7643  166.3234 C.ar    1  UNL1        0.0296
      8 C         142.7644  141.4839  165.0708 C.ar    1  UNL1        0.0098
      9 C         142.0751  142.1775  163.9334 C.ar    1  UNL1        0.0383
     10 C         142.3226  141.2654  167.6980 C.ar    1  UNL1        0.0060
     11 C         141.9774  139.8593  168.0900 C.ar    1  UNL1        0.0005
     12 C         142.3117  139.3605  169.4646 C.ar    1  UNL1        0.0000
     13 C         142.9911  140.2677  170.4471 C.ar    1  UNL1        0.0000
     14 C         143.3363  141.6738  170.0551 C.ar    1  UNL1        0.0000
     15 C         143.0020  142.1726  168.6805 C.ar    1  UNL1        0.0005
     16 C         138.7803  144.3822  164.1172 C.2     1  UNL1        0.2448
     17 N         138.9048  145.2208  165.3546 N.am    1  UNL1       -0.3253
     18 O         137.4536  144.2527  163.4293 O.2     1  UNL1       -0.2703
     19 H         139.7755  145.3057  165.8061 H       1  UNL1        0.1453
     20 H         138.1158  145.6862  165.7153 H       1  UNL1        0.1453
     21 N         143.5888  141.5459  161.9185 N.pl3   1  UNL1       -0.2935
     22 C         143.4231  140.2506  161.1804 C.3     1  UNL1        0.0899
     23 C         143.0957  138.9951  161.9330 C.3     1  UNL1        0.0226
     24 C         142.9300  137.6998  161.1949 C.3     1  UNL1        0.0188
     25 C         143.0918  137.6601  159.7042 C.3     1  UNL1        0.0687
     26 N         143.4192  138.9156  158.9516 N.3     1  UNL1       -0.2961
     27 C         143.5849  140.2109  159.6897 C.3     1  UNL1        0.0886
     28 H         142.6700  139.0565  158.2739 H       1  UNL1        0.1233
     29 C         145.7943  141.7193  163.2807 C.3     1  UNL1        0.0232
     30 C         144.9566  142.1322  162.1069 C.3     1  UNL1        0.0922
@<TRIPOS>BOND
     1    29    30    1
     2    30    21    1
     3    21     1    1
     4     1     2   ar
     5     2     3   ar
     6     3     4   ar
     7     4    16    1
     8    16    17   am
     9    16    18    2
    10     4     5   ar
    11     5     6   ar
    12     6     7   ar
    13     7    10    1
    14    10    11   ar
    15    11    12   ar
    16    12    13   ar
    17    13    14   ar
    18    14    15   ar
    19     7     8   ar
    20     8     9   ar
    21    22    21    1
    22    22    23    1
    23    23    24    1
    24    24    25    1
    25    25    26    1
    26    26    27    1
    27     9     1   ar
    28    27    22    1
    29     9     5   ar
    30    15    10   ar
    31    17    19    1
    32    17    20    1
    33    26    28    1
@<TRIPOS>MOLECULE
*****
 30 33 0 0 0
SMALL
GASTEIGER

@<TRIPOS>ATOM
      1 C         140.1904  142.6271  166.1890 C.ar    1  UNL1        0.1321
      2 N         139.5669  143.9854  166.3172 N.ar    1  UNL1       -0.2290
      3 C         139.3506  144.8296  165.0964 C.ar    1  UNL1        0.1053
      4 C         139.7578  144.3155  163.7473 C.ar    1  UNL1        0.0783
      5 C         140.3812  142.9573  163.6191 C.ar    1  UNL1        0.0380
      6 S         140.8802  142.1901  162.4306 S.2     1  UNL1       -0.0866
      7 C         141.4050  140.8718  162.9171 C.ar    1  UNL1        0.0296
      8 C         141.2303  140.8241  164.4061 C.ar    1  UNL1        0.0098
      9 C         140.5975  142.1131  164.8400 C.ar    1  UNL1        0.0383
     10 C         142.0000  139.7908  162.0642 C.ar    1  UNL1        0.0060
     11 C         143.3044  139.1608  162.4536 C.ar    1  UNL1        0.0005
     12 C         143.8994  138.0798  161.6006 C.ar    1  UNL1        0.0000
     13 C         143.1900  137.6288  160.3583 C.ar    1  UNL1        0.0000
     14 C         141.8856  138.2588  159.9689 C.ar    1  UNL1        0.0000
     15 C         141.2906  139.3398  160.8218 C.ar    1  UNL1        0.0005
     16 C         139.5414  145.1598  162.5264 C.2     1  UNL1        0.2448
     17 N         140.7175  145.7345  161.7939 N.am    1  UNL1       -0.3253
     18 O         138.1490  145.4293  162.0381 O.2     1  UNL1       -0.2703
     19 H         141.6314  145.5576  162.1144 H       1  UNL1        0.1453
     20 H         140.5755  146.2886  160.9927 H       1  UNL1        0.1453
     21 N         140.4067  141.7829  167.4099 N.pl3   1  UNL1       -0.2935
     22 C         141.3439  142.2462  168.4857 C.3     1  UNL1        0.0899
     23 C         142.7553  141.7398  168.5200 C.3     1  UNL1        0.0226
     24 C         143.6924  142.2030  169.5957 C.3     1  UNL1        0.0188
     25 C         143.2181  143.1727  170.6372 C.3     1  UNL1        0.0687
     26 N         141.8066  143.6792  170.6029 N.3     1  UNL1       -0.2961
     27 C         140.8694  143.2159  169.5271 C.3     1  UNL1        0.0886
     28 H         141.8600  144.6952  170.5294 H       1  UNL1        0.1233
     29 C         139.2235  140.0202  168.9075 C.3     1  UNL1        0.0232
     30 C         139.6859  140.4755  167.5551 C.3     1  UNL1        0.0922
@<TRIPOS>BOND
     1    29    30    1
     2    30    21    1
     3    21     1    1
     4     1     2   ar
     5     2     3   ar
     6     3     4   ar
     7     4    16    1
     8    16    17   am
     9    16    18    2
    10     4     5   ar
    11     5     6   ar
    12     6     7   ar
    13     7    10    1
    14    10    11   ar
    15    11    12   ar
    16    12    13   ar
    17    13    14   ar
    18    14    15   ar
    19     7     8   ar
    20     8     9   ar
    21    22    21    1
    22    22    23    1
    23    23    24    1
    24    24    25    1
    25    25    26    1
    26    26    27    1
    27     9     1   ar
    28    27    22    1
    29     9     5   ar
    30    15    10   ar
    31    17    19    1
    32    17    20    1
    33    26    28    1
