@<TRIPOS>MOLECULE
*****
 35 39 0 0 0
SMALL
GASTEIGER

@<TRIPOS>ATOM
      1 N         138.2228  141.1554  164.2022 N.3     1  UNL1       -0.2724
      2 C         137.9869  140.5703  162.8412 C.3     1  UNL1        0.0721
      3 C         138.3947  139.1273  162.8800 C.3     1  UNL1        0.0187
      4 C         138.8826  138.8206  164.2649 C.3     1  UNL1        0.0178
      5 C         138.7763  140.0740  165.0820 C.3     1  UNL1        0.0721
      6 C         137.9526  142.5730  164.6113 C.3     1  UNL1        0.0768
      7 C         139.0899  143.5386  164.7667 C.3     1  UNL1        0.0439
      8 C         140.3043  143.1464  165.5552 C.ar    1  UNL1       -0.0193
      9 C         141.6465  143.0918  164.8877 C.ar    1  UNL1       -0.0041
     10 C         142.8608  142.6996  165.6762 C.ar    1  UNL1        0.0012
     11 C         142.7329  142.3621  167.1321 C.ar    1  UNL1        0.0175
     12 C         141.3907  142.4167  167.7996 C.ar    1  UNL1        0.0652
     13 C         140.1764  142.8089  167.0111 C.ar    1  UNL1        0.0133
     14 N         141.2628  142.0792  169.2555 N.ar    1  UNL1       -0.2864
     15 C         141.9221  140.9276  169.9549 C.ar    1  UNL1        0.1022
     16 C         141.5200  140.9706  171.3993 C.ar    1  UNL1        0.1196
     17 N         140.6121  142.1489  171.5927 N.ar    1  UNL1       -0.2220
     18 C         140.4532  142.8340  170.2677 C.ar    1  UNL1        0.1828
     19 C         139.0130  144.8962  164.1337 C.3     1  UNL1        0.0474
     20 O         138.5892  144.1941  161.6684 O.co2   1  UNL1       -0.5492
     21 C         139.2967  145.0584  162.6697 C.2     1  UNL1        0.0507
     22 O         140.2880  146.0847  162.2070 O.co2   1  UNL1       -0.5492
     23 C         139.3879  137.4935  164.7478 C.3     1  UNL1        0.0077
     24 C         140.7469  137.0125  164.3332 C.3     1  UNL1        0.0459
     25 C         141.8994  137.9713  164.2850 C.ar    1  UNL1        0.0603
     26 C         142.8311  138.0836  165.4553 C.ar    1  UNL1        0.0145
     27 C         143.9836  139.0423  165.4071 C.ar    1  UNL1       -0.0003
     28 C         144.2045  139.8890  164.1887 C.ar    1  UNL1        0.0092
     29 C         143.2729  139.7768  163.0185 C.ar    1  UNL1        0.1240
     30 N         142.1203  138.8179  163.0667 N.ar    1  UNL1       -0.2356
     31 N         143.4938  140.6233  161.8001 N.pl3   1  UNL1       -0.3184
     32 C         144.6463  141.5821  161.7520 C.3     1  UNL1        0.0885
     33 C         145.5779  141.6943  162.9222 C.3     1  UNL1        0.0260
     34 C         145.3570  140.8478  164.1406 C.3     1  UNL1        0.0309
     35 H         142.8823  140.5497  161.0320 H       1  UNL1        0.1482
@<TRIPOS>UNITY_ATOM_ATTR
20 1
charge -1
@<TRIPOS>BOND
     1    20    21   ar
     2    21    22   ar
     3    21    19    1
     4    19     7    1
     5     7     6    1
     6     6     1    1
     7     1     2    1
     8     2     3    1
     9     3     4    1
    10     4    23    1
    11    23    24    1
    12    24    25    1
    13    25    26   ar
    14    26    27   ar
    15    27    28   ar
    16    28    29   ar
    17    29    30   ar
    18    29    31    1
    19    31    32    1
    20    32    33    1
    21    33    34    1
    22     4     5    1
    23     7     8    1
    24     8     9   ar
    25     9    10   ar
    26    10    11   ar
    27    11    12   ar
    28    12    14    1
    29    14    15   ar
    30    15    16   ar
    31    16    17   ar
    32    17    18   ar
    33    12    13   ar
    34     5     1    1
    35    13     8   ar
    36    30    25   ar
    37    18    14   ar
    38    34    28    1
    39    31    35    1
@<TRIPOS>MOLECULE
*****
 35 39 0 0 0
SMALL
GASTEIGER

@<TRIPOS>ATOM
      1 N         141.2429  142.5607  166.8691 N.3     1  UNL1       -0.2724
      2 C         142.0915  142.8095  165.6575 C.3     1  UNL1        0.0721
      3 C         141.3108  143.6768  164.7149 C.3     1  UNL1        0.0187
      4 C         139.9798  143.9640  165.3440 C.3     1  UNL1        0.0178
      5 C         139.9378  143.2743  166.6753 C.3     1  UNL1        0.0721
      6 C         141.6312  141.7422  168.0646 C.3     1  UNL1        0.0768
      7 C         141.0156  140.3915  168.2808 C.3     1  UNL1        0.0439
      8 C         140.3272  139.6908  167.1471 C.ar    1  UNL1       -0.0193
      9 C         138.8836  139.3028  167.2710 C.ar    1  UNL1       -0.0041
     10 C         138.1953  138.6021  166.1373 C.ar    1  UNL1        0.0012
     11 C         138.9507  138.2895  164.8796 C.ar    1  UNL1        0.0175
     12 C         140.3943  138.6775  164.7557 C.ar    1  UNL1        0.0652
     13 C         141.0826  139.3782  165.8894 C.ar    1  UNL1        0.0133
     14 N         141.1497  138.3649  163.4980 N.ar    1  UNL1       -0.2864
     15 C         140.5458  138.0712  162.1567 C.ar    1  UNL1        0.1022
     16 C         141.6644  137.8158  161.1906 C.ar    1  UNL1        0.1196
     17 N         142.9597  137.9517  161.9348 N.ar    1  UNL1       -0.2220
     18 C         142.6415  138.2910  163.3609 C.ar    1  UNL1        0.1828
     19 C         141.0882  139.7416  169.6307 C.3     1  UNL1        0.0474
     20 O         140.6549  141.0772  171.8167 O.co2   1  UNL1       -0.5492
     21 C         140.1583  140.1775  170.7240 C.2     1  UNL1        0.0507
     22 O         138.7318  139.7137  170.7247 O.co2   1  UNL1       -0.5492
     23 C         138.8833  144.7951  164.7465 C.3     1  UNL1        0.0077
     24 C         137.6526  144.1330  164.2016 C.3     1  UNL1        0.0459
     25 C         137.7745  143.0836  163.1367 C.ar    1  UNL1        0.0603
     26 C         137.6087  141.6350  163.4889 C.ar    1  UNL1        0.0145
     27 C         137.7306  140.5855  162.4242 C.ar    1  UNL1       -0.0003
     28 C         138.0183  140.9846  161.0071 C.ar    1  UNL1        0.0092
     29 C         138.1842  142.4332  160.6549 C.ar    1  UNL1        0.1240
     30 N         138.0622  143.4827  161.7197 N.ar    1  UNL1       -0.2356
     31 N         138.4719  142.8324  159.2379 N.pl3   1  UNL1       -0.3184
     32 C         138.5938  141.7829  158.1732 C.3     1  UNL1        0.0885
     33 C         138.4280  140.3343  158.5254 C.3     1  UNL1        0.0260
     34 C         138.1403  139.9352  159.9424 C.3     1  UNL1        0.0309
     35 H         138.5807  143.7832  159.0068 H       1  UNL1        0.1482
@<TRIPOS>UNITY_ATOM_ATTR
20 1
charge -1
@<TRIPOS>BOND
     1    20    21   ar
     2    21    22   ar
     3    21    19    1
     4    19     7    1
     5     7     6    1
     6     6     1    1
     7     1     2    1
     8     2     3    1
     9     3     4    1
    10     4    23    1
    11    23    24    1
    12    24    25    1
    13    25    26   ar
    14    26    27   ar
    15    27    28   ar
    16    28    29   ar
    17    29    30   ar
    18    29    31    1
    19    31    32    1
    20    32    33    1
    21    33    34    1
    22     4     5    1
    23     7     8    1
    24     8     9   ar
    25     9    10   ar
    26    10    11   ar
    27    11    12   ar
    28    12    14    1
    29    14    15   ar
    30    15    16   ar
    31    16    17   ar
    32    17    18   ar
    33    12    13   ar
    34     5     1    1
    35    13     8   ar
    36    30    25   ar
    37    18    14   ar
    38    34    28    1
    39    31    35    1
@<TRIPOS>MOLECULE
*****
 35 39 0 0 0
SMALL
GASTEIGER

@<TRIPOS>ATOM
      1 N         142.7616  140.8372  167.1110 N.3     1  UNL1       -0.2724
      2 C         143.1377  142.1676  166.5290 C.3     1  UNL1        0.0721
      3 C         143.9190  141.9199  165.2728 C.3     1  UNL1        0.0187
      4 C         144.0259  140.4365  165.0783 C.3     1  UNL1        0.0178
      5 C         143.3106  139.7673  166.2143 C.3     1  UNL1        0.0721
      6 C         141.9748  140.6156  168.3686 C.3     1  UNL1        0.0768
      7 C         140.4920  140.8422  168.3754 C.3     1  UNL1        0.0439
      8 C         139.7183  140.7827  167.0917 C.ar    1  UNL1       -0.0193
      9 C         138.9999  139.5236  166.7066 C.ar    1  UNL1       -0.0041
     10 C         138.2262  139.4641  165.4229 C.ar    1  UNL1        0.0012
     11 C         138.1710  140.6639  164.5242 C.ar    1  UNL1        0.0175
     12 C         138.8895  141.9230  164.9093 C.ar    1  UNL1        0.0652
     13 C         139.6631  141.9825  166.1930 C.ar    1  UNL1        0.0133
     14 N         138.8343  143.1228  164.0106 N.ar    1  UNL1       -0.2864
     15 C         139.8712  144.2026  163.9168 C.ar    1  UNL1        0.1022
     16 C         139.4103  145.2005  162.8962 C.ar    1  UNL1        0.1196
     17 N         138.0885  144.7374  162.3591 N.ar    1  UNL1       -0.2220
     18 C         137.7326  143.4532  163.0479 C.ar    1  UNL1        0.1828
     19 C         139.7830  141.1284  169.6659 C.3     1  UNL1        0.0474
     20 O         140.0318  143.7139  169.7247 O.co2   1  UNL1       -0.5492
     21 C         140.0834  142.3876  170.4236 C.2     1  UNL1        0.0507
     22 O         140.4356  142.3205  171.8801 O.co2   1  UNL1       -0.5492
     23 C         144.7253  139.7438  163.9465 C.3     1  UNL1        0.0077
     24 C         144.0971  139.7104  162.5848 C.3     1  UNL1        0.0459
     25 C         142.6672  139.2848  162.4287 C.ar    1  UNL1        0.0603
     26 C         142.2239  137.9446  162.9361 C.ar    1  UNL1        0.0145
     27 C         140.7941  137.5189  162.7800 C.ar    1  UNL1       -0.0003
     28 C         139.8074  138.4335  162.1166 C.ar    1  UNL1        0.0092
     29 C         140.2506  139.7738  161.6093 C.ar    1  UNL1        0.1240
     30 N         141.6806  140.1994  161.7654 N.ar    1  UNL1       -0.2356
     31 N         139.2640  140.6883  160.9459 N.pl3   1  UNL1       -0.3184
     32 C         137.8342  140.2627  160.7899 C.3     1  UNL1        0.0885
     33 C         137.3910  138.9225  161.2972 C.3     1  UNL1        0.0260
     34 C         138.3776  138.0079  161.9606 C.3     1  UNL1        0.0309
     35 H         139.5549  141.5680  160.6130 H       1  UNL1        0.1482
@<TRIPOS>UNITY_ATOM_ATTR
20 1
charge -1
@<TRIPOS>BOND
     1    20    21   ar
     2    21    22   ar
     3    21    19    1
     4    19     7    1
     5     7     6    1
     6     6     1    1
     7     1     2    1
     8     2     3    1
     9     3     4    1
    10     4    23    1
    11    23    24    1
    12    24    25    1
    13    25    26   ar
    14    26    27   ar
    15    27    28   ar
    16    28    29   ar
    17    29    30   ar
    18    29    31    1
    19    31    32    1
    20    32    33    1
    21    33    34    1
    22     4     5    1
    23     7     8    1
    24     8     9   ar
    25     9    10   ar
    26    10    11   ar
    27    11    12   ar
    28    12    14    1
    29    14    15   ar
    30    15    16   ar
    31    16    17   ar
    32    17    18   ar
    33    12    13   ar
    34     5     1    1
    35    13     8   ar
    36    30    25   ar
    37    18    14   ar
    38    34    28    1
    39    31    35    1
@<TRIPOS>MOLECULE
*****
 35 39 0 0 0
SMALL
GASTEIGER

@<TRIPOS>ATOM
      1 N         138.0621  142.0218  163.5013 N.3     1  UNL1       -0.2724
      2 C         137.8272  142.2810  162.0426 C.3     1  UNL1        0.0721
      3 C         137.7696  140.9571  161.3400 C.3     1  UNL1        0.0187
      4 C         137.9689  139.8796  162.3643 C.3     1  UNL1        0.0178
      5 C         138.1497  140.5377  163.7001 C.3     1  UNL1        0.0721
      6 C         138.1874  143.0639  164.5730 C.3     1  UNL1        0.0768
      7 C         139.4718  143.8214  164.7360 C.3     1  UNL1        0.0439
      8 C         140.5733  143.2564  165.5831 C.ar    1  UNL1       -0.0193
      9 C         141.9285  143.0144  164.9875 C.ar    1  UNL1       -0.0041
     10 C         143.0300  142.4495  165.8346 C.ar    1  UNL1        0.0012
     11 C         142.7763  142.1266  167.2773 C.ar    1  UNL1        0.0175
     12 C         141.4211  142.3687  167.8729 C.ar    1  UNL1        0.0652
     13 C         140.3196  142.9336  167.0259 C.ar    1  UNL1        0.0133
     14 N         141.1674  142.0458  169.3157 N.ar    1  UNL1       -0.2864
     15 C         141.6316  140.8164  170.0389 C.ar    1  UNL1        0.1022
     16 C         141.1561  140.9064  171.4586 C.ar    1  UNL1        0.1196
     17 N         140.3980  142.1915  171.6129 N.ar    1  UNL1       -0.2220
     18 C         140.4050  142.8957  170.2884 C.ar    1  UNL1        0.1828
     19 C         139.6546  145.1438  164.0521 C.3     1  UNL1        0.0474
     20 O         139.1735  146.2095  161.7319 O.co2   1  UNL1       -0.5492
     21 C         139.8927  145.1960  162.5720 C.2     1  UNL1        0.0507
     22 O         140.8501  144.2349  161.9320 O.co2   1  UNL1       -0.5492
     23 C         137.9847  138.4033  162.0994 C.3     1  UNL1        0.0077
     24 C         139.2793  137.7099  161.7943 C.3     1  UNL1        0.0459
     25 C         140.5255  138.0861  162.5396 C.ar    1  UNL1        0.0603
     26 C         140.8088  137.4790  163.8817 C.ar    1  UNL1        0.0145
     27 C         142.0550  137.8552  164.6270 C.ar    1  UNL1       -0.0003
     28 C         143.0178  138.8386  164.0303 C.ar    1  UNL1        0.0092
     29 C         142.7345  139.4457  162.6882 C.ar    1  UNL1        0.1240
     30 N         141.4883  139.0694  161.9429 N.ar    1  UNL1       -0.2356
     31 N         143.6973  140.4290  162.0915 N.pl3   1  UNL1       -0.3184
     32 C         144.9434  140.8052  162.8369 C.3     1  UNL1        0.0885
     33 C         145.2268  140.1981  164.1789 C.3     1  UNL1        0.0260
     34 C         144.2640  139.2148  164.7757 C.3     1  UNL1        0.0309
     35 H         143.5113  140.8274  161.2107 H       1  UNL1        0.1482
@<TRIPOS>UNITY_ATOM_ATTR
20 1
charge -1
@<TRIPOS>BOND
     1    20    21   ar
     2    21    22   ar
     3    21    19    1
     4    19     7    1
     5     7     6    1
     6     6     1    1
     7     1     2    1
     8     2     3    1
     9     3     4    1
    10     4    23    1
    11    23    24    1
    12    24    25    1
    13    25    26   ar
    14    26    27   ar
    15    27    28   ar
    16    28    29   ar
    17    29    30   ar
    18    29    31    1
    19    31    32    1
    20    32    33    1
    21    33    34    1
    22     4     5    1
    23     7     8    1
    24     8     9   ar
    25     9    10   ar
    26    10    11   ar
    27    11    12   ar
    28    12    14    1
    29    14    15   ar
    30    15    16   ar
    31    16    17   ar
    32    17    18   ar
    33    12    13   ar
    34     5     1    1
    35    13     8   ar
    36    30    25   ar
    37    18    14   ar
    38    34    28    1
    39    31    35    1
@<TRIPOS>MOLECULE
*****
 35 39 0 0 0
SMALL
GASTEIGER

@<TRIPOS>ATOM
      1 N         142.5070  138.5409  164.1713 N.3     1  UNL1       -0.2724
      2 C         143.0177  138.2035  162.8018 C.3     1  UNL1        0.0721
      3 C         144.2713  138.9929  162.5671 C.3     1  UNL1        0.0187
      4 C         144.5355  139.8182  163.7914 C.3     1  UNL1        0.0178
      5 C         143.4451  139.5388  164.7829 C.3     1  UNL1        0.0721
      6 C         141.2746  137.9790  164.8159 C.3     1  UNL1        0.0768
      7 C         140.0173  138.7954  164.8690 C.3     1  UNL1        0.0439
      8 C         140.0073  140.1112  165.5892 C.ar    1  UNL1       -0.0193
      9 C         139.7351  141.3779  164.8334 C.ar    1  UNL1       -0.0041
     10 C         139.7252  142.6936  165.5536 C.ar    1  UNL1        0.0012
     11 C         139.9874  142.7427  167.0297 C.ar    1  UNL1        0.0175
     12 C         140.2596  141.4760  167.7856 C.ar    1  UNL1        0.0652
     13 C         140.2695  140.1603  167.0654 C.ar    1  UNL1        0.0133
     14 N         140.5218  141.5250  169.2617 N.ar    1  UNL1       -0.2864
     15 C         141.3050  140.5191  170.0519 C.ar    1  UNL1        0.1022
     16 C         141.3141  140.9609  171.4853 C.ar    1  UNL1        0.1196
     17 N         140.5365  142.2401  171.5809 N.ar    1  UNL1       -0.2220
     18 C         140.0468  142.5887  170.2066 C.ar    1  UNL1        0.1828
     19 C         138.7700  138.2960  164.2020 C.3     1  UNL1        0.0474
     20 O         139.5666  137.5766  161.8359 O.co2   1  UNL1       -0.5492
     21 C         138.6378  138.3669  162.7095 C.2     1  UNL1        0.0507
     22 O         137.5770  139.2279  162.0906 O.co2   1  UNL1       -0.5492
     23 C         145.6878  140.7578  163.9896 C.3     1  UNL1        0.0077
     24 C         145.7312  142.0588  163.2444 C.3     1  UNL1        0.0459
     25 C         144.5025  142.9149  163.1575 C.ar    1  UNL1        0.0603
     26 C         143.8694  143.4473  164.4088 C.ar    1  UNL1        0.0145
     27 C         142.6407  144.3033  164.3220 C.ar    1  UNL1       -0.0003
     28 C         142.0451  144.6269  162.9839 C.ar    1  UNL1        0.0092
     29 C         142.6781  144.0945  161.7326 C.ar    1  UNL1        0.1240
     30 N         143.9069  143.2384  161.8194 N.ar    1  UNL1       -0.2356
     31 N         142.0825  144.4180  160.3945 N.pl3   1  UNL1       -0.3184
     32 C         140.8538  145.2740  160.3077 C.3     1  UNL1        0.0885
     33 C         140.2208  145.8065  161.5590 C.3     1  UNL1        0.0260
     34 C         140.8164  145.4829  162.8971 C.3     1  UNL1        0.0309
     35 H         142.4980  144.0686  159.5733 H       1  UNL1        0.1482
@<TRIPOS>UNITY_ATOM_ATTR
20 1
charge -1
@<TRIPOS>BOND
     1    20    21   ar
     2    21    22   ar
     3    21    19    1
     4    19     7    1
     5     7     6    1
     6     6     1    1
     7     1     2    1
     8     2     3    1
     9     3     4    1
    10     4    23    1
    11    23    24    1
    12    24    25    1
    13    25    26   ar
    14    26    27   ar
    15    27    28   ar
    16    28    29   ar
    17    29    30   ar
    18    29    31    1
    19    31    32    1
    20    32    33    1
    21    33    34    1
    22     4     5    1
    23     7     8    1
    24     8     9   ar
    25     9    10   ar
    26    10    11   ar
    27    11    12   ar
    28    12    14    1
    29    14    15   ar
    30    15    16   ar
    31    16    17   ar
    32    17    18   ar
    33    12    13   ar
    34     5     1    1
    35    13     8   ar
    36    30    25   ar
    37    18    14   ar
    38    34    28    1
    39    31    35    1
@<TRIPOS>MOLECULE
*****
 35 39 0 0 0
SMALL
GASTEIGER

@<TRIPOS>ATOM
      1 N         142.4865  144.1802  163.8689 N.3     1  UNL1       -0.2724
      2 C         142.4638  144.6430  162.4422 C.3     1  UNL1        0.0721
      3 C         141.0438  144.9654  162.0820 C.3     1  UNL1        0.0187
      4 C         140.1889  144.7018  163.2860 C.3     1  UNL1        0.0178
      5 C         141.0805  144.2165  164.3903 C.3     1  UNL1        0.0721
      6 C         143.7017  143.7556  164.6389 C.3     1  UNL1        0.0768
      7 C         144.0884  142.3072  164.6910 C.3     1  UNL1        0.0439
      8 C         143.3447  141.3643  165.5899 C.ar    1  UNL1       -0.0193
      9 C         143.4498  139.8835  165.3751 C.ar    1  UNL1       -0.0041
     10 C         142.7061  138.9406  166.2740 C.ar    1  UNL1        0.0012
     11 C         141.8575  139.4786  167.3877 C.ar    1  UNL1        0.0175
     12 C         141.7525  140.9594  167.6026 C.ar    1  UNL1        0.0652
     13 C         142.4961  141.9022  166.7037 C.ar    1  UNL1        0.0133
     14 N         140.9038  141.4973  168.7164 N.ar    1  UNL1       -0.2864
     15 C         141.0156  142.8613  169.3302 C.ar    1  UNL1        0.1022
     16 C         139.9753  142.9727  170.4050 C.ar    1  UNL1        0.1196
     17 N         139.2205  141.6775  170.4555 N.ar    1  UNL1       -0.2220
     18 C         139.7944  140.7656  169.4117 C.ar    1  UNL1        0.1828
     19 C         145.2187  141.8018  163.8443 C.3     1  UNL1        0.0474
     20 O         144.5923  140.0506  162.0301 O.co2   1  UNL1       -0.5492
     21 C         144.9792  141.4504  162.4058 C.2     1  UNL1        0.0507
     22 O         145.1267  142.4986  161.3431 O.co2   1  UNL1       -0.5492
     23 C         138.7032  144.8903  163.3707 C.3     1  UNL1        0.0077
     24 C         137.7817  143.8446  162.8165 C.3     1  UNL1        0.0459
     25 C         138.0669  142.3913  163.0547 C.ar    1  UNL1        0.0603
     26 C         138.4531  141.5050  161.9079 C.ar    1  UNL1        0.0145
     27 C         138.7382  140.0517  162.1460 C.ar    1  UNL1       -0.0003
     28 C         138.6371  139.4847  163.5311 C.ar    1  UNL1        0.0092
     29 C         138.2509  140.3711  164.6780 C.ar    1  UNL1        0.1240
     30 N         137.9657  141.8244  164.4397 N.ar    1  UNL1       -0.2356
     31 N         138.1497  139.8041  166.0630 N.pl3   1  UNL1       -0.3184
     32 C         138.4348  138.3509  166.3012 C.3     1  UNL1        0.0885
     33 C         138.8211  137.4646  165.1543 C.3     1  UNL1        0.0260
     34 C         138.9222  138.0315  163.7693 C.3     1  UNL1        0.0309
     35 H         137.8962  140.3859  166.8157 H       1  UNL1        0.1482
@<TRIPOS>UNITY_ATOM_ATTR
20 1
charge -1
@<TRIPOS>BOND
     1    20    21   ar
     2    21    22   ar
     3    21    19    1
     4    19     7    1
     5     7     6    1
     6     6     1    1
     7     1     2    1
     8     2     3    1
     9     3     4    1
    10     4    23    1
    11    23    24    1
    12    24    25    1
    13    25    26   ar
    14    26    27   ar
    15    27    28   ar
    16    28    29   ar
    17    29    30   ar
    18    29    31    1
    19    31    32    1
    20    32    33    1
    21    33    34    1
    22     4     5    1
    23     7     8    1
    24     8     9   ar
    25     9    10   ar
    26    10    11   ar
    27    11    12   ar
    28    12    14    1
    29    14    15   ar
    30    15    16   ar
    31    16    17   ar
    32    17    18   ar
    33    12    13   ar
    34     5     1    1
    35    13     8   ar
    36    30    25   ar
    37    18    14   ar
    38    34    28    1
    39    31    35    1
@<TRIPOS>MOLECULE
*****
 35 39 0 0 0
SMALL
GASTEIGER

@<TRIPOS>ATOM
      1 N         139.8829  139.5767  167.3259 N.3     1  UNL1       -0.2724
      2 C         138.4060  139.3144  167.3224 C.3     1  UNL1        0.0721
      3 C         138.0830  138.4987  166.1057 C.3     1  UNL1        0.0187
      4 C         139.3603  138.2569  165.3573 C.3     1  UNL1        0.0178
      5 C         140.4727  138.9231  166.1114 C.3     1  UNL1        0.0721
      6 C         140.6375  140.3558  168.3620 C.3     1  UNL1        0.0768
      7 C         140.8212  141.8358  168.2011 C.3     1  UNL1        0.0439
      8 C         141.4539  142.3821  166.9555 C.ar    1  UNL1       -0.0193
      9 C         142.9241  142.2010  166.7196 C.ar    1  UNL1       -0.0041
     10 C         143.5567  142.7472  165.4740 C.ar    1  UNL1        0.0012
     11 C         142.7190  143.4745  164.4643 C.ar    1  UNL1        0.0175
     12 C         141.2488  143.6556  164.7002 C.ar    1  UNL1        0.0652
     13 C         140.6162  143.1093  165.9458 C.ar    1  UNL1        0.0133
     14 N         140.4112  144.3828  163.6906 N.ar    1  UNL1       -0.2864
     15 C         140.8989  145.4207  162.7237 C.ar    1  UNL1        0.1022
     16 C         139.7279  145.8793  161.9060 C.ar    1  UNL1        0.1196
     17 N         138.5165  145.1247  162.3676 N.ar    1  UNL1       -0.2220
     18 C         138.9388  144.1999  163.4705 C.ar    1  UNL1        0.1828
     19 C         140.3723  142.7696  169.2858 C.3     1  UNL1        0.0474
     20 O         140.5230  142.1806  171.8118 O.co2   1  UNL1       -0.5492
     21 C         141.1139  142.8173  170.5888 C.2     1  UNL1        0.0507
     22 O         142.4462  143.5017  170.6689 O.co2   1  UNL1       -0.5492
     23 C         139.5005  137.4844  164.0792 C.3     1  UNL1        0.0077
     24 C         139.7257  138.2095  162.7855 C.3     1  UNL1        0.0459
     25 C         140.9796  139.0071  162.5812 C.ar    1  UNL1        0.0603
     26 C         142.2955  138.4723  163.0632 C.ar    1  UNL1        0.0145
     27 C         143.5494  139.2698  162.8589 C.ar    1  UNL1       -0.0003
     28 C         143.4873  140.6023  162.1726 C.ar    1  UNL1        0.0092
     29 C         142.1714  141.1371  161.6907 C.ar    1  UNL1        0.1240
     30 N         140.9175  140.3394  161.8950 N.ar    1  UNL1       -0.2356
     31 N         142.1093  142.4694  161.0044 N.pl3   1  UNL1       -0.3184
     32 C         143.3631  143.2669  160.8001 C.3     1  UNL1        0.0885
     33 C         144.6791  142.7321  161.2821 C.3     1  UNL1        0.0260
     34 C         144.7412  141.3998  161.9683 C.3     1  UNL1        0.0309
     35 H         141.2456  142.8204  160.6881 H       1  UNL1        0.1482
@<TRIPOS>UNITY_ATOM_ATTR
20 1
charge -1
@<TRIPOS>BOND
     1    20    21   ar
     2    21    22   ar
     3    21    19    1
     4    19     7    1
     5     7     6    1
     6     6     1    1
     7     1     2    1
     8     2     3    1
     9     3     4    1
    10     4    23    1
    11    23    24    1
    12    24    25    1
    13    25    26   ar
    14    26    27   ar
    15    27    28   ar
    16    28    29   ar
    17    29    30   ar
    18    29    31    1
    19    31    32    1
    20    32    33    1
    21    33    34    1
    22     4     5    1
    23     7     8    1
    24     8     9   ar
    25     9    10   ar
    26    10    11   ar
    27    11    12   ar
    28    12    14    1
    29    14    15   ar
    30    15    16   ar
    31    16    17   ar
    32    17    18   ar
    33    12    13   ar
    34     5     1    1
    35    13     8   ar
    36    30    25   ar
    37    18    14   ar
    38    34    28    1
    39    31    35    1
@<TRIPOS>MOLECULE
*****
 35 39 0 0 0
SMALL
GASTEIGER

@<TRIPOS>ATOM
      1 N         142.7485  140.0732  166.9665 N.3     1  UNL1       -0.2724
      2 C         143.1051  138.8305  166.2057 C.3     1  UNL1        0.0721
      3 C         143.9374  139.2331  165.0245 C.3     1  UNL1        0.0187
      4 C         144.0952  140.7244  165.0552 C.3     1  UNL1        0.0178
      5 C         143.3604  141.2436  166.2555 C.3     1  UNL1        0.0721
      6 C         141.9246  140.1345  168.2185 C.3     1  UNL1        0.0768
      7 C         140.5692  140.7766  168.1937 C.3     1  UNL1        0.0439
      8 C         139.7561  140.7636  166.9332 C.ar    1  UNL1       -0.0193
      9 C         138.9765  139.5388  166.5562 C.ar    1  UNL1       -0.0041
     10 C         138.1634  139.5258  165.2958 C.ar    1  UNL1        0.0012
     11 C         138.1299  140.7375  164.4123 C.ar    1  UNL1        0.0175
     12 C         138.9094  141.9623  164.7893 C.ar    1  UNL1        0.0652
     13 C         139.7225  141.9753  166.0497 C.ar    1  UNL1        0.0133
     14 N         138.8759  143.1741  163.9058 N.ar    1  UNL1       -0.2864
     15 C         139.8486  144.3155  163.9375 C.ar    1  UNL1        0.1022
     16 C         139.4377  145.3041  162.8869 C.ar    1  UNL1        0.1196
     17 N         138.2109  144.7736  162.2058 N.ar    1  UNL1       -0.2220
     18 C         137.8638  143.4572  162.8357 C.ar    1  UNL1        0.1828
     19 C         140.0269  141.4317  169.4293 C.3     1  UNL1        0.0474
     20 O         140.9362  141.3166  171.8604 O.co2   1  UNL1       -0.5492
     21 C         140.1151  140.7285  170.7513 C.2     1  UNL1        0.0507
     22 O         139.3821  139.4373  170.9643 O.co2   1  UNL1       -0.5492
     23 C         144.8545  141.5513  164.0604 C.3     1  UNL1        0.0077
     24 C         144.3047  142.8713  163.6073 C.3     1  UNL1        0.0459
     25 C         143.2133  142.9162  162.5793 C.ar    1  UNL1        0.0603
     26 C         142.2628  141.7637  162.4438 C.ar    1  UNL1        0.0145
     27 C         141.1714  141.8085  161.4158 C.ar    1  UNL1       -0.0003
     28 C         141.0305  143.0059  160.5232 C.ar    1  UNL1        0.0092
     29 C         141.9810  144.1584  160.6587 C.ar    1  UNL1        0.1240
     30 N         143.0724  144.1135  161.6868 N.ar    1  UNL1       -0.2356
     31 N         141.8401  145.3557  159.7662 N.pl3   1  UNL1       -0.3184
     32 C         140.7487  145.4005  158.7383 C.3     1  UNL1        0.0885
     33 C         139.7982  144.2480  158.6027 C.3     1  UNL1        0.0260
     34 C         139.9391  143.0507  159.4952 C.3     1  UNL1        0.0309
     35 H         142.4639  146.1121  159.8552 H       1  UNL1        0.1482
@<TRIPOS>UNITY_ATOM_ATTR
20 1
charge -1
@<TRIPOS>BOND
     1    20    21   ar
     2    21    22   ar
     3    21    19    1
     4    19     7    1
     5     7     6    1
     6     6     1    1
     7     1     2    1
     8     2     3    1
     9     3     4    1
    10     4    23    1
    11    23    24    1
    12    24    25    1
    13    25    26   ar
    14    26    27   ar
    15    27    28   ar
    16    28    29   ar
    17    29    30   ar
    18    29    31    1
    19    31    32    1
    20    32    33    1
    21    33    34    1
    22     4     5    1
    23     7     8    1
    24     8     9   ar
    25     9    10   ar
    26    10    11   ar
    27    11    12   ar
    28    12    14    1
    29    14    15   ar
    30    15    16   ar
    31    16    17   ar
    32    17    18   ar
    33    12    13   ar
    34     5     1    1
    35    13     8   ar
    36    30    25   ar
    37    18    14   ar
    38    34    28    1
    39    31    35    1
@<TRIPOS>MOLECULE
*****
 35 39 0 0 0
SMALL
GASTEIGER

@<TRIPOS>ATOM
      1 N         141.6360  138.2891  163.2345 N.3     1  UNL1       -0.2724
      2 C         141.9123  138.1301  161.7687 C.3     1  UNL1        0.0721
      3 C         140.5963  138.1003  161.0495 C.3     1  UNL1        0.0187
      4 C         139.5067  138.2408  162.0707 C.3     1  UNL1        0.0178
      5 C         140.1492  138.3574  163.4211 C.3     1  UNL1        0.0721
      6 C         142.6656  138.3661  164.3225 C.3     1  UNL1        0.0768
      7 C         143.2429  139.6934  164.7162 C.3     1  UNL1        0.0439
      8 C         142.3948  140.6941  165.4439 C.ar    1  UNL1       -0.0193
      9 C         141.6229  141.7242  164.6738 C.ar    1  UNL1       -0.0041
     10 C         140.7748  142.7248  165.4014 C.ar    1  UNL1        0.0012
     11 C         140.6986  142.6952  166.8992 C.ar    1  UNL1        0.0175
     12 C         141.4704  141.6651  167.6693 C.ar    1  UNL1        0.0652
     13 C         142.3185  140.6645  166.9417 C.ar    1  UNL1        0.0133
     14 N         141.3942  141.6356  169.1671 N.ar    1  UNL1       -0.2864
     15 C         140.5484  140.7085  169.9888 C.ar    1  UNL1        0.1022
     16 C         140.7818  141.0279  171.4357 C.ar    1  UNL1        0.1196
     17 N         141.7718  142.1524  171.5082 N.ar    1  UNL1       -0.2220
     18 C         142.1503  142.5280  170.1061 C.ar    1  UNL1        0.1828
     19 C         144.6683  140.0201  164.3823 C.3     1  UNL1        0.0474
     20 O         144.1011  140.7362  161.9500 O.co2   1  UNL1       -0.5492
     21 C         144.9859  140.8265  163.1580 C.2     1  UNL1        0.0507
     22 O         146.1884  141.7231  163.1416 O.co2   1  UNL1       -0.5492
     23 C         138.0332  138.2610  161.7907 C.3     1  UNL1        0.0077
     24 C         137.4082  139.4642  161.1490 C.3     1  UNL1        0.0459
     25 C         137.7853  140.8410  161.6100 C.ar    1  UNL1        0.0603
     26 C         137.3986  141.3042  162.9833 C.ar    1  UNL1        0.0145
     27 C         137.7756  142.6809  163.4443 C.ar    1  UNL1       -0.0003
     28 C         138.5394  143.5944  162.5320 C.ar    1  UNL1        0.0092
     29 C         138.9261  143.1312  161.1587 C.ar    1  UNL1        0.1240
     30 N         138.5490  141.7544  160.6977 N.ar    1  UNL1       -0.2356
     31 N         139.6898  144.0446  160.2464 N.pl3   1  UNL1       -0.3184
     32 C         140.0668  145.4213  160.7074 C.3     1  UNL1        0.0885
     33 C         139.6801  145.8845  162.0807 C.3     1  UNL1        0.0260
     34 C         138.9164  144.9711  162.9930 C.3     1  UNL1        0.0309
     35 H         139.9436  143.7406  159.3451 H       1  UNL1        0.1482
@<TRIPOS>UNITY_ATOM_ATTR
20 1
charge -1
@<TRIPOS>BOND
     1    20    21   ar
     2    21    22   ar
     3    21    19    1
     4    19     7    1
     5     7     6    1
     6     6     1    1
     7     1     2    1
     8     2     3    1
     9     3     4    1
    10     4    23    1
    11    23    24    1
    12    24    25    1
    13    25    26   ar
    14    26    27   ar
    15    27    28   ar
    16    28    29   ar
    17    29    30   ar
    18    29    31    1
    19    31    32    1
    20    32    33    1
    21    33    34    1
    22     4     5    1
    23     7     8    1
    24     8     9   ar
    25     9    10   ar
    26    10    11   ar
    27    11    12   ar
    28    12    14    1
    29    14    15   ar
    30    15    16   ar
    31    16    17   ar
    32    17    18   ar
    33    12    13   ar
    34     5     1    1
    35    13     8   ar
    36    30    25   ar
    37    18    14   ar
    38    34    28    1
    39    31    35    1
