@<TRIPOS>MOLECULE
*****
 33 36 0 0 0
SMALL
GASTEIGER

@<TRIPOS>ATOM
      1 N         138.5676  138.8229  162.9311 N.3     1  UNL1       -0.2724
      2 C         138.9477  137.6242  163.7487 C.3     1  UNL1        0.0758
      3 C         138.9016  137.6926  165.2464 C.3     1  UNL1        0.0609
      4 C         138.4755  138.9598  165.9265 C.3     1  UNL1        0.1687
      5 C         138.0954  140.1585  165.1089 C.3     1  UNL1        0.0609
      6 C         138.1415  140.0901  163.6112 C.3     1  UNL1        0.0758
      7 C         138.6137  138.7545  161.4333 C.3     1  UNL1        0.0722
      8 N         142.1973  140.3353  159.2178 N.pl3   1  UNL1       -0.3075
      9 C         140.8445  140.9396  158.9841 C.3     1  UNL1        0.0908
     10 C         139.6499  140.4127  159.7226 C.3     1  UNL1        0.0229
     11 C         139.8082  139.2814  160.6949 C.3     1  UNL1        0.0194
     12 C         141.1611  138.6771  160.9286 C.3     1  UNL1        0.0229
     13 C         142.3556  139.2041  160.1901 C.3     1  UNL1        0.0908
     14 C         144.1089  142.0792  158.9841 C.ar    1  UNL1        0.0273
     15 C         145.3034  142.6062  158.2456 C.ar    1  UNL1        0.0024
     16 C         145.7809  141.9161  157.0022 C.ar    1  UNL1        0.0001
     17 C         145.0639  140.6992  156.4974 C.ar    1  UNL1        0.0013
     18 C         143.8694  140.1723  157.2360 C.ar    1  UNL1        0.0146
     19 C         143.3919  140.8623  158.4793 C.ar    1  UNL1        0.0489
     20 O         144.0319  142.2476  161.5756 O.co2   1  UNL1       -0.5446
     21 C         143.6314  142.7693  160.2274 C.2     1  UNL1        0.0741
     22 O         142.7536  143.9810  160.1227 O.co2   1  UNL1       -0.5446
     23 O         138.4294  139.0282  167.4243 O.3     1  UNL1       -0.4790
     24 C         139.3934  139.9070  168.1649 C.ar    1  UNL1        0.1392
     25 C         139.0949  140.3274  169.5736 C.ar    1  UNL1        0.0367
     26 C         140.0588  141.2061  170.3142 C.ar    1  UNL1        0.0021
     27 C         141.3212  141.6646  169.6462 C.ar    1  UNL1        0.0177
     28 C         141.6197  141.2442  168.2377 C.ar    1  UNL1        0.0590
     29 CL        142.8821  141.7026  167.5697 Cl      1  UNL1       -0.0824
     30 C         140.6558  140.3654  167.4969 C.ar    1  UNL1        0.0480
     31 C         142.2852  142.5434  170.3870 C.3     1  UNL1        0.1644
     32 O         142.2944  142.5492  171.8869 O.3     1  UNL1       -0.3772
     33 H         141.4574  142.9145  172.2140 H       1  UNL1        0.2109
@<TRIPOS>UNITY_ATOM_ATTR
20 1
charge -1
@<TRIPOS>BOND
     1    20    21   ar
     2    21    22   ar
     3    21    14    1
     4    14    15   ar
     5    15    16   ar
     6    16    17   ar
     7    17    18   ar
     8    18    19   ar
     9    19     8    1
    10     8     9    1
    11     9    10    1
    12    10    11    1
    13    11     7    1
    14     7     1    1
    15     1     2    1
    16     2     3    1
    17     3     4    1
    18     4    23    1
    19    23    24    1
    20    24    25   ar
    21    25    26   ar
    22    26    27   ar
    23    27    31    1
    24    31    32    1
    25    27    28   ar
    26    28    29    1
    27    28    30   ar
    28     4     5    1
    29     5     6    1
    30    11    12    1
    31    12    13    1
    32    19    14   ar
    33    13     8    1
    34     6     1    1
    35    30    24   ar
    36    32    33    1
@<TRIPOS>MOLECULE
*****
 33 36 0 0 0
SMALL
GASTEIGER

@<TRIPOS>ATOM
      1 N         138.8397  138.7418  162.7208 N.3     1  UNL1       -0.2724
      2 C         139.2769  137.6064  163.5982 C.3     1  UNL1        0.0758
      3 C         139.1256  137.7078  165.0871 C.3     1  UNL1        0.0609
      4 C         138.5373  138.9446  165.6987 C.3     1  UNL1        0.1687
      5 C         138.1001  140.0800  164.8213 C.3     1  UNL1        0.0609
      6 C         138.2513  139.9786  163.3324 C.3     1  UNL1        0.0758
      7 C         138.9909  138.6403  161.2319 C.3     1  UNL1        0.0722
      8 N         140.3690  142.2089  158.8620 N.pl3   1  UNL1       -0.3075
      9 C         138.9038  141.9151  158.9918 C.3     1  UNL1        0.0908
     10 C         138.4444  140.7256  159.7817 C.3     1  UNL1        0.0229
     11 C         139.4503  139.8298  160.4420 C.3     1  UNL1        0.0194
     12 C         140.9155  140.1236  160.3122 C.3     1  UNL1        0.0229
     13 C         141.3749  141.3131  159.5222 C.3     1  UNL1        0.0908
     14 C         141.1271  144.6922  158.7697 C.ar    1  UNL1        0.0273
     15 C         141.5864  145.8817  157.9797 C.ar    1  UNL1        0.0024
     16 C         141.7470  145.7773  156.4920 C.ar    1  UNL1        0.0001
     17 C         141.4483  144.4836  155.7943 C.ar    1  UNL1        0.0013
     18 C         140.9890  143.2941  156.5843 C.ar    1  UNL1        0.0146
     19 C         140.8284  143.3984  158.0720 C.ar    1  UNL1        0.0489
     20 O         142.1722  144.7385  161.1479 O.co2   1  UNL1       -0.5446
     21 C         140.9665  144.7965  160.2575 C.2     1  UNL1        0.0741
     22 O         139.6002  144.9588  160.8548 O.co2   1  UNL1       -0.5446
     23 O         138.3860  139.0460  167.1876 O.3     1  UNL1       -0.4790
     24 C         139.3229  139.9092  167.9795 C.ar    1  UNL1        0.1392
     25 C         139.0007  140.2563  169.4028 C.ar    1  UNL1        0.0367
     26 C         139.9376  141.1195  170.1948 C.ar    1  UNL1        0.0021
     27 C         141.1966  141.6355  169.5635 C.ar    1  UNL1        0.0177
     28 C         141.5188  141.2884  168.1403 C.ar    1  UNL1        0.0590
     29 CL        142.7778  141.8045  167.5090 Cl      1  UNL1       -0.0824
     30 C         140.5819  140.4252  167.3482 C.ar    1  UNL1        0.0480
     31 C         142.1335  142.4987  170.3555 C.3     1  UNL1        0.1644
     32 O         142.2255  142.3366  171.8439 O.3     1  UNL1       -0.3772
     33 H         141.3835  142.5957  172.2500 H       1  UNL1        0.2109
@<TRIPOS>UNITY_ATOM_ATTR
20 1
charge -1
@<TRIPOS>BOND
     1    20    21   ar
     2    21    22   ar
     3    21    14    1
     4    14    15   ar
     5    15    16   ar
     6    16    17   ar
     7    17    18   ar
     8    18    19   ar
     9    19     8    1
    10     8     9    1
    11     9    10    1
    12    10    11    1
    13    11     7    1
    14     7     1    1
    15     1     2    1
    16     2     3    1
    17     3     4    1
    18     4    23    1
    19    23    24    1
    20    24    25   ar
    21    25    26   ar
    22    26    27   ar
    23    27    31    1
    24    31    32    1
    25    27    28   ar
    26    28    29    1
    27    28    30   ar
    28     4     5    1
    29     5     6    1
    30    11    12    1
    31    12    13    1
    32    19    14   ar
    33    13     8    1
    34     6     1    1
    35    30    24   ar
    36    32    33    1
@<TRIPOS>MOLECULE
*****
 33 36 0 0 0
SMALL
GASTEIGER

@<TRIPOS>ATOM
      1 N         138.9960  138.3451  161.9743 N.3     1  UNL1       -0.2724
      2 C         140.0817  138.3353  160.9393 C.3     1  UNL1        0.0758
      3 C         139.8962  139.0804  159.6507 C.3     1  UNL1        0.0609
      4 C         138.6251  139.8352  159.3971 C.3     1  UNL1        0.1687
      5 C         137.5394  139.8450  160.4320 C.3     1  UNL1        0.0609
      6 C         137.7248  139.0999  161.7206 C.3     1  UNL1        0.0758
      7 C         139.1814  137.6000  163.2628 C.3     1  UNL1        0.0722
      8 N         141.3085  139.5608  166.7097 N.pl3   1  UNL1       -0.3075
      9 C         142.0783  138.7234  165.7319 C.3     1  UNL1        0.0908
     10 C         141.3693  138.0698  164.5830 C.3     1  UNL1        0.0229
     11 C         139.8904  138.2536  164.4118 C.3     1  UNL1        0.0194
     12 C         139.1206  139.0911  165.3896 C.3     1  UNL1        0.0229
     13 C         139.8297  139.7447  166.5385 C.3     1  UNL1        0.0908
     14 C         142.6466  141.5646  167.6816 C.ar    1  UNL1        0.0273
     15 C         143.3556  142.2181  168.8305 C.ar    1  UNL1        0.0024
     16 C         143.4355  141.5215  170.1566 C.ar    1  UNL1        0.0001
     17 C         142.8065  140.1714  170.3337 C.ar    1  UNL1        0.0013
     18 C         142.0975  139.5179  169.1847 C.ar    1  UNL1        0.0146
     19 C         142.0175  140.2145  167.8587 C.ar    1  UNL1        0.0489
     20 O         141.2903  142.9268  165.9337 O.co2   1  UNL1       -0.5446
     21 C         142.5666  142.2611  166.3555 C.2     1  UNL1        0.0741
     22 O         143.7630  142.2921  165.4513 O.co2   1  UNL1       -0.5446
     23 O         138.4396  140.5803  158.1085 O.3     1  UNL1       -0.4790
     24 C         139.1169  141.9028  157.9026 C.ar    1  UNL1        0.1392
     25 C         139.6082  142.2896  156.5391 C.ar    1  UNL1        0.0367
     26 C         140.2855  143.6120  156.3333 C.ar    1  UNL1        0.0021
     27 C         140.4714  144.5477  157.4908 C.ar    1  UNL1        0.0177
     28 C         139.9801  144.1609  158.8542 C.ar    1  UNL1        0.0590
     29 CL        140.1660  145.0966  160.0118 Cl      1  UNL1       -0.0824
     30 C         139.3028  142.8384  159.0602 C.ar    1  UNL1        0.0480
     31 C         141.1487  145.8702  157.2849 C.3     1  UNL1        0.1644
     32 O         142.5907  146.0409  157.6609 O.3     1  UNL1       -0.3772
     33 H         142.6861  145.9577  158.6226 H       1  UNL1        0.2109
@<TRIPOS>UNITY_ATOM_ATTR
20 1
charge -1
@<TRIPOS>BOND
     1    20    21   ar
     2    21    22   ar
     3    21    14    1
     4    14    15   ar
     5    15    16   ar
     6    16    17   ar
     7    17    18   ar
     8    18    19   ar
     9    19     8    1
    10     8     9    1
    11     9    10    1
    12    10    11    1
    13    11     7    1
    14     7     1    1
    15     1     2    1
    16     2     3    1
    17     3     4    1
    18     4    23    1
    19    23    24    1
    20    24    25   ar
    21    25    26   ar
    22    26    27   ar
    23    27    31    1
    24    31    32    1
    25    27    28   ar
    26    28    29    1
    27    28    30   ar
    28     4     5    1
    29     5     6    1
    30    11    12    1
    31    12    13    1
    32    19    14   ar
    33    13     8    1
    34     6     1    1
    35    30    24   ar
    36    32    33    1
@<TRIPOS>MOLECULE
*****
 33 36 0 0 0
SMALL
GASTEIGER

@<TRIPOS>ATOM
      1 N         140.1938  138.6474  160.1206 N.3     1  UNL1       -0.2724
      2 C         139.8472  138.5066  158.6681 C.3     1  UNL1        0.0758
      3 C         140.8908  138.0591  157.6879 C.3     1  UNL1        0.0609
      4 C         142.2810  137.7522  158.1604 C.3     1  UNL1        0.1687
      5 C         142.6275  137.8929  159.6129 C.3     1  UNL1        0.0609
      6 C         141.5840  138.3405  160.5931 C.3     1  UNL1        0.0758
      7 C         139.1502  139.0949  161.1008 C.3     1  UNL1        0.0722
      8 N         140.2062  139.5768  165.4485 N.pl3   1  UNL1       -0.3075
      9 C         139.8142  138.2302  164.9167 C.3     1  UNL1        0.0908
     10 C         139.4622  138.0695  163.4675 C.3     1  UNL1        0.0229
     11 C         139.5022  139.2556  162.5500 C.3     1  UNL1        0.0194
     12 C         139.8942  140.6022  163.0818 C.3     1  UNL1        0.0229
     13 C         140.2462  140.7629  164.5311 C.3     1  UNL1        0.0908
     14 C         141.9855  139.6118  167.3413 C.ar    1  UNL1        0.0273
     15 C         142.3375  139.7724  168.7905 C.ar    1  UNL1        0.0024
     16 C         141.2620  140.0587  169.7962 C.ar    1  UNL1        0.0001
     17 C         139.8346  140.1844  169.3527 C.ar    1  UNL1        0.0013
     18 C         139.4827  140.0237  167.9035 C.ar    1  UNL1        0.0146
     19 C         140.5582  139.7375  166.8978 C.ar    1  UNL1        0.0489
     20 O         143.6029  137.9341  166.1925 O.co2   1  UNL1       -0.5446
     21 C         143.0610  139.3255  166.3356 C.2     1  UNL1        0.0741
     22 O         143.5946  140.4305  165.4730 O.co2   1  UNL1       -0.5446
     23 O         143.3245  137.3047  157.1802 O.3     1  UNL1       -0.4790
     24 C         143.0985  136.0733  156.3540 C.ar    1  UNL1        0.1392
     25 C         142.8518  136.1944  154.8794 C.ar    1  UNL1        0.0367
     26 C         142.6258  134.9631  154.0532 C.ar    1  UNL1        0.0021
     27 C         142.6464  133.6106  154.7015 C.ar    1  UNL1        0.0177
     28 C         142.8931  133.4895  156.1761 C.ar    1  UNL1        0.0590
     29 CL        142.9137  132.1370  156.8245 Cl      1  UNL1       -0.0824
     30 C         143.1191  134.7209  157.0024 C.ar    1  UNL1        0.0480
     31 C         142.4203  132.3792  153.8752 C.3     1  UNL1        0.1644
     32 O         143.5581  131.4412  153.6004 O.3     1  UNL1       -0.3772
     33 H         144.2192  131.8878  153.0487 H       1  UNL1        0.2109
@<TRIPOS>UNITY_ATOM_ATTR
20 1
charge -1
@<TRIPOS>BOND
     1    20    21   ar
     2    21    22   ar
     3    21    14    1
     4    14    15   ar
     5    15    16   ar
     6    16    17   ar
     7    17    18   ar
     8    18    19   ar
     9    19     8    1
    10     8     9    1
    11     9    10    1
    12    10    11    1
    13    11     7    1
    14     7     1    1
    15     1     2    1
    16     2     3    1
    17     3     4    1
    18     4    23    1
    19    23    24    1
    20    24    25   ar
    21    25    26   ar
    22    26    27   ar
    23    27    31    1
    24    31    32    1
    25    27    28   ar
    26    28    29    1
    27    28    30   ar
    28     4     5    1
    29     5     6    1
    30    11    12    1
    31    12    13    1
    32    19    14   ar
    33    13     8    1
    34     6     1    1
    35    30    24   ar
    36    32    33    1
@<TRIPOS>MOLECULE
*****
 33 36 0 0 0
SMALL
GASTEIGER

@<TRIPOS>ATOM
      1 N         138.6648  144.0687  162.0973 N.3     1  UNL1       -0.2724
      2 C         139.4173  145.3481  161.8812 C.3     1  UNL1        0.0758
      3 C         140.1301  145.5890  160.5835 C.3     1  UNL1        0.0609
      4 C         140.0903  144.5504  159.5019 C.3     1  UNL1        0.1687
      5 C         139.3378  143.2710  159.7181 C.3     1  UNL1        0.0609
      6 C         138.6251  143.0301  161.0158 C.3     1  UNL1        0.0758
      7 C         137.9521  143.8278  163.3950 C.3     1  UNL1        0.0722
      8 N         139.9885  141.5354  166.6887 N.pl3   1  UNL1       -0.3075
      9 C         140.2284  143.0087  166.5411 C.3     1  UNL1        0.0908
     10 C         139.5496  143.7728  165.4432 C.3     1  UNL1        0.0229
     11 C         138.6309  143.0636  164.4929 C.3     1  UNL1        0.0194
     12 C         138.3910  141.5903  164.6405 C.3     1  UNL1        0.0229
     13 C         139.0698  140.8262  165.7384 C.3     1  UNL1        0.0908
     14 C         142.0044  140.1366  167.5429 C.ar    1  UNL1        0.0273
     15 C         142.6831  139.3726  168.6408 C.ar    1  UNL1        0.0024
     16 C         142.0247  139.2431  169.9824 C.ar    1  UNL1        0.0001
     17 C         140.6876  139.8776  170.2261 C.ar    1  UNL1        0.0013
     18 C         140.0089  140.6417  169.1282 C.ar    1  UNL1        0.0146
     19 C         140.6673  140.7712  167.7866 C.ar    1  UNL1        0.0489
     20 O         142.5808  139.1401  165.2139 O.co2   1  UNL1       -0.5446
     21 C         142.6627  140.2662  166.2014 C.2     1  UNL1        0.0741
     22 O         143.4031  141.5217  165.8473 O.co2   1  UNL1       -0.5446
     23 O         140.8030  144.7913  158.2042 O.3     1  UNL1       -0.4790
     24 C         142.0228  143.9899  157.8585 C.ar    1  UNL1        0.1392
     25 C         142.3004  143.6248  156.4303 C.ar    1  UNL1        0.0367
     26 C         143.5203  142.8233  156.0845 C.ar    1  UNL1        0.0021
     27 C         144.4626  142.3869  157.1669 C.ar    1  UNL1        0.0177
     28 C         144.1850  142.7519  158.5951 C.ar    1  UNL1        0.0590
     29 CL        145.1273  142.3155  159.6775 Cl      1  UNL1       -0.0824
     30 C         142.9651  143.5535  158.9409 C.ar    1  UNL1        0.0480
     31 C         145.6825  141.5854  156.8211 C.3     1  UNL1        0.1644
     32 O         145.5889  140.0937  156.6950 O.3     1  UNL1       -0.3772
     33 H         145.3815  139.7084  157.5607 H       1  UNL1        0.2109
@<TRIPOS>UNITY_ATOM_ATTR
20 1
charge -1
@<TRIPOS>BOND
     1    20    21   ar
     2    21    22   ar
     3    21    14    1
     4    14    15   ar
     5    15    16   ar
     6    16    17   ar
     7    17    18   ar
     8    18    19   ar
     9    19     8    1
    10     8     9    1
    11     9    10    1
    12    10    11    1
    13    11     7    1
    14     7     1    1
    15     1     2    1
    16     2     3    1
    17     3     4    1
    18     4    23    1
    19    23    24    1
    20    24    25   ar
    21    25    26   ar
    22    26    27   ar
    23    27    31    1
    24    31    32    1
    25    27    28   ar
    26    28    29    1
    27    28    30   ar
    28     4     5    1
    29     5     6    1
    30    11    12    1
    31    12    13    1
    32    19    14   ar
    33    13     8    1
    34     6     1    1
    35    30    24   ar
    36    32    33    1
@<TRIPOS>MOLECULE
*****
 33 36 0 0 0
SMALL
GASTEIGER

@<TRIPOS>ATOM
      1 N         140.5774  138.4887  158.3562 N.3     1  UNL1       -0.2724
      2 C         139.7732  137.8758  157.2483 C.3     1  UNL1        0.0758
      3 C         140.4163  136.9041  156.3037 C.3     1  UNL1        0.0609
      4 C         141.8635  136.5453  156.4669 C.3     1  UNL1        0.1687
      5 C         142.6677  137.1583  157.5748 C.3     1  UNL1        0.0609
      6 C         142.0247  138.1299  158.5195 C.3     1  UNL1        0.0758
      7 C         139.9344  139.4604  159.3009 C.3     1  UNL1        0.0722
      8 N         141.0777  139.4592  163.6532 N.pl3   1  UNL1       -0.3075
      9 C         141.4453  140.6233  162.7815 C.3     1  UNL1        0.0908
     10 C         141.0642  140.6237  161.3307 C.3     1  UNL1        0.0229
     11 C         140.3155  139.4600  160.7516 C.3     1  UNL1        0.0194
     12 C         139.9479  138.2959  161.6233 C.3     1  UNL1        0.0229
     13 C         140.3291  138.2956  163.0741 C.3     1  UNL1        0.0908
     14 C         140.5237  140.0355  166.1252 C.ar    1  UNL1        0.0273
     15 C         140.9049  140.0352  167.5760 C.ar    1  UNL1        0.0024
     16 C         142.2212  139.4582  168.0055 C.ar    1  UNL1        0.0001
     17 C         143.1563  138.8815  166.9842 C.ar    1  UNL1        0.0013
     18 C         142.7751  138.8819  165.5335 C.ar    1  UNL1        0.0146
     19 C         141.4589  139.4589  165.1040 C.ar    1  UNL1        0.0489
     20 O         139.0931  142.0776  165.3951 O.co2   1  UNL1       -0.5446
     21 C         139.2075  140.6125  165.6958 C.2     1  UNL1        0.0741
     22 O         138.0055  139.7245  165.5669 O.co2   1  UNL1       -0.5446
     23 O         142.5066  135.5737  155.5223 O.3     1  UNL1       -0.4790
     24 C         142.8187  134.1792  155.9782 C.ar    1  UNL1        0.1392
     25 C         141.9262  133.0418  155.5783 C.ar    1  UNL1        0.0367
     26 C         142.2383  131.6474  156.0342 C.ar    1  UNL1        0.0021
     27 C         143.4430  131.3901  156.8902 C.ar    1  UNL1        0.0177
     28 C         144.3355  132.5274  157.2901 C.ar    1  UNL1        0.0590
     29 CL        145.5402  132.2702  158.1461 Cl      1  UNL1       -0.0824
     30 C         144.0234  133.9220  156.8342 C.ar    1  UNL1        0.0480
     31 C         143.7552  129.9956  157.3461 C.3     1  UNL1        0.1644
     32 O         143.4270  129.5736  158.7476 O.3     1  UNL1       -0.3772
     33 H         143.9738  130.0749  159.3726 H       1  UNL1        0.2109
@<TRIPOS>UNITY_ATOM_ATTR
20 1
charge -1
@<TRIPOS>BOND
     1    20    21   ar
     2    21    22   ar
     3    21    14    1
     4    14    15   ar
     5    15    16   ar
     6    16    17   ar
     7    17    18   ar
     8    18    19   ar
     9    19     8    1
    10     8     9    1
    11     9    10    1
    12    10    11    1
    13    11     7    1
    14     7     1    1
    15     1     2    1
    16     2     3    1
    17     3     4    1
    18     4    23    1
    19    23    24    1
    20    24    25   ar
    21    25    26   ar
    22    26    27   ar
    23    27    31    1
    24    31    32    1
    25    27    28   ar
    26    28    29    1
    27    28    30   ar
    28     4     5    1
    29     5     6    1
    30    11    12    1
    31    12    13    1
    32    19    14   ar
    33    13     8    1
    34     6     1    1
    35    30    24   ar
    36    32    33    1
@<TRIPOS>MOLECULE
*****
 33 36 0 0 0
SMALL
GASTEIGER

@<TRIPOS>ATOM
      1 N         137.7728  141.4756  161.5985 N.3     1  UNL1       -0.2724
      2 C         138.3441  142.6697  160.8930 C.3     1  UNL1        0.0758
      3 C         138.8924  142.5288  159.5040 C.3     1  UNL1        0.0609
      4 C         138.8694  141.1939  158.8204 C.3     1  UNL1        0.1687
      5 C         138.2981  139.9998  159.5259 C.3     1  UNL1        0.0609
      6 C         137.7498  140.1407  160.9149 C.3     1  UNL1        0.0758
      7 C         137.2245  141.6165  162.9876 C.3     1  UNL1        0.0722
      8 N         140.0213  142.2307  166.4590 N.pl3   1  UNL1       -0.3075
      9 C         139.4403  140.8733  166.1951 C.3     1  UNL1        0.0908
     10 C         138.5081  140.6685  165.0380 C.3     1  UNL1        0.0229
     11 C         138.1568  141.8213  164.1447 C.3     1  UNL1        0.0194
     12 C         138.7378  143.1787  164.4086 C.3     1  UNL1        0.0229
     13 C         139.6701  143.3835  165.5658 C.3     1  UNL1        0.0908
     14 C         142.4106  142.1092  167.4723 C.ar    1  UNL1        0.0273
     15 C         143.3428  142.3140  168.6294 C.ar    1  UNL1        0.0024
     16 C         142.8181  142.8449  169.9304 C.ar    1  UNL1        0.0001
     17 C         141.3611  143.1711  170.0743 C.ar    1  UNL1        0.0013
     18 C         140.4289  142.9664  168.9172 C.ar    1  UNL1        0.0146
     19 C         140.9536  142.4355  167.6162 C.ar    1  UNL1        0.0489
     20 O         143.0165  140.0979  165.9434 O.co2   1  UNL1       -0.5446
     21 C         142.9354  141.5783  166.1712 C.2     1  UNL1        0.0741
     22 O         143.3790  142.5277  165.0980 O.co2   1  UNL1       -0.5446
     23 O         139.4177  141.0530  157.4313 O.3     1  UNL1       -0.4790
     24 C         140.4314  139.9894  157.1294 C.ar    1  UNL1        0.1392
     25 C         141.8788  140.2206  157.4483 C.ar    1  UNL1        0.0367
     26 C         142.8925  139.1571  157.1464 C.ar    1  UNL1        0.0021
     27 C         142.4589  137.8622  156.5256 C.ar    1  UNL1        0.0177
     28 C         141.0115  137.6310  156.2067 C.ar    1  UNL1        0.0590
     29 CL        140.5779  136.3362  155.5859 Cl      1  UNL1       -0.0824
     30 C         139.9977  138.6946  156.5086 C.ar    1  UNL1        0.0480
     31 C         143.4726  136.7986  156.2237 C.3     1  UNL1        0.1644
     32 O         144.7312  137.1496  155.4871 O.3     1  UNL1       -0.3772
     33 H         144.5109  137.4250  154.5835 H       1  UNL1        0.2109
@<TRIPOS>UNITY_ATOM_ATTR
20 1
charge -1
@<TRIPOS>BOND
     1    20    21   ar
     2    21    22   ar
     3    21    14    1
     4    14    15   ar
     5    15    16   ar
     6    16    17   ar
     7    17    18   ar
     8    18    19   ar
     9    19     8    1
    10     8     9    1
    11     9    10    1
    12    10    11    1
    13    11     7    1
    14     7     1    1
    15     1     2    1
    16     2     3    1
    17     3     4    1
    18     4    23    1
    19    23    24    1
    20    24    25   ar
    21    25    26   ar
    22    26    27   ar
    23    27    31    1
    24    31    32    1
    25    27    28   ar
    26    28    29    1
    27    28    30   ar
    28     4     5    1
    29     5     6    1
    30    11    12    1
    31    12    13    1
    32    19    14   ar
    33    13     8    1
    34     6     1    1
    35    30    24   ar
    36    32    33    1
@<TRIPOS>MOLECULE
*****
 33 36 0 0 0
SMALL
GASTEIGER

@<TRIPOS>ATOM
      1 N         142.3799  138.3234  162.5330 N.3     1  UNL1       -0.2724
      2 C         143.6291  139.0148  162.9928 C.3     1  UNL1        0.0758
      3 C         143.9509  139.0874  164.4560 C.3     1  UNL1        0.0609
      4 C         143.0236  138.4686  165.4595 C.3     1  UNL1        0.1687
      5 C         141.7744  137.7771  164.9998 C.3     1  UNL1        0.0609
      6 C         141.4526  137.7046  163.5365 C.3     1  UNL1        0.0758
      7 C         142.0580  138.2508  161.0697 C.3     1  UNL1        0.0722
      8 N         141.1226  142.0116  158.7824 N.pl3   1  UNL1       -0.3075
      9 C         140.0079  141.1504  159.2980 C.3     1  UNL1        0.0908
     10 C         140.3197  139.8969  160.0604 C.3     1  UNL1        0.0229
     11 C         141.7463  139.5044  160.3073 C.3     1  UNL1        0.0194
     12 C         142.8610  140.3655  159.7917 C.3     1  UNL1        0.0229
     13 C         142.5492  141.6191  159.0293 C.3     1  UNL1        0.0908
     14 C         140.6109  144.5586  158.7528 C.ar    1  UNL1        0.0273
     15 C         140.2991  145.8121  157.9903 C.ar    1  UNL1        0.0024
     16 C         140.1872  145.7722  156.4950 C.ar    1  UNL1        0.0001
     17 C         140.3871  144.4788  155.7622 C.ar    1  UNL1        0.0013
     18 C         140.6989  143.2253  156.5247 C.ar    1  UNL1        0.0146
     19 C         140.8108  143.2652  158.0200 C.ar    1  UNL1        0.0489
     20 O         139.4935  144.4594  161.0962 O.co2   1  UNL1       -0.5446
     21 C         140.7228  144.5985  160.2481 C.2     1  UNL1        0.0741
     22 O         142.0641  144.7775  160.8953 O.co2   1  UNL1       -0.5446
     23 O         143.3455  138.5411  166.9228 O.3     1  UNL1       -0.4790
     24 C         142.5881  139.4827  167.8115 C.ar    1  UNL1        0.1392
     25 C         142.4980  139.2146  169.2847 C.ar    1  UNL1        0.0367
     26 C         141.7406  140.1561  170.1734 C.ar    1  UNL1        0.0021
     27 C         141.0734  141.3658  169.5890 C.ar    1  UNL1        0.0177
     28 C         141.1635  141.6340  168.1160 C.ar    1  UNL1        0.0590
     29 CL        140.4963  142.8436  167.5316 Cl      1  UNL1       -0.0824
     30 C         141.9209  140.6924  167.2272 C.ar    1  UNL1        0.0480
     31 C         140.3160  142.3074  170.4778 C.3     1  UNL1        0.1644
     32 O         140.4121  142.1723  171.9686 O.3     1  UNL1       -0.3772
     33 H         140.0122  141.3325  172.2436 H       1  UNL1        0.2109
@<TRIPOS>UNITY_ATOM_ATTR
20 1
charge -1
@<TRIPOS>BOND
     1    20    21   ar
     2    21    22   ar
     3    21    14    1
     4    14    15   ar
     5    15    16   ar
     6    16    17   ar
     7    17    18   ar
     8    18    19   ar
     9    19     8    1
    10     8     9    1
    11     9    10    1
    12    10    11    1
    13    11     7    1
    14     7     1    1
    15     1     2    1
    16     2     3    1
    17     3     4    1
    18     4    23    1
    19    23    24    1
    20    24    25   ar
    21    25    26   ar
    22    26    27   ar
    23    27    31    1
    24    31    32    1
    25    27    28   ar
    26    28    29    1
    27    28    30   ar
    28     4     5    1
    29     5     6    1
    30    11    12    1
    31    12    13    1
    32    19    14   ar
    33    13     8    1
    34     6     1    1
    35    30    24   ar
    36    32    33    1
@<TRIPOS>MOLECULE
*****
 33 36 0 0 0
SMALL
GASTEIGER

@<TRIPOS>ATOM
      1 N         139.1895  138.6885  161.7339 N.3     1  UNL1       -0.2724
      2 C         139.0552  137.6589  162.8164 C.3     1  UNL1        0.0758
      3 C         138.7956  138.0869  164.2305 C.3     1  UNL1        0.0609
      4 C         138.6705  139.5444  164.5620 C.3     1  UNL1        0.1687
      5 C         138.8049  140.5739  163.4795 C.3     1  UNL1        0.0609
      6 C         139.0644  140.1460  162.0654 C.3     1  UNL1        0.0758
      7 C         139.4491  138.2605  160.3199 C.3     1  UNL1        0.0722
      8 N         142.9608  139.9468  158.0673 N.pl3   1  UNL1       -0.3075
      9 C         143.1796  138.9171  159.1359 C.3     1  UNL1        0.0908
     10 C         142.0091  138.3551  159.8867 C.3     1  UNL1        0.0229
     11 C         140.6196  138.8226  159.5690 C.3     1  UNL1        0.0194
     12 C         140.4008  139.8523  158.5004 C.3     1  UNL1        0.0229
     13 C         141.5714  140.4144  157.7495 C.3     1  UNL1        0.0908
     14 C         144.6069  139.8417  156.0599 C.ar    1  UNL1        0.0273
     15 C         145.7775  140.4038  155.3091 C.ar    1  UNL1        0.0024
     16 C         146.4726  141.6331  155.8148 C.ar    1  UNL1        0.0001
     17 C         145.9971  142.3003  157.0713 C.ar    1  UNL1        0.0013
     18 C         144.8265  141.7382  157.8221 C.ar    1  UNL1        0.0146
     19 C         144.1314  140.5089  157.3164 C.ar    1  UNL1        0.0489
     20 O         142.6138  138.7363  154.8127 O.co2   1  UNL1       -0.5446
     21 C         143.9118  138.6125  155.5543 C.2     1  UNL1        0.0741
     22 O         144.5146  137.2594  155.7901 O.co2   1  UNL1       -0.5446
     23 O         138.4109  139.9723  165.9760 O.3     1  UNL1       -0.4790
     24 C         139.5311  139.9845  166.9735 C.ar    1  UNL1        0.1392
     25 C         140.9552  139.9849  166.5021 C.ar    1  UNL1        0.0367
     26 C         142.0753  139.9972  167.4996 C.ar    1  UNL1        0.0021
     27 C         141.7715  140.0090  168.9685 C.ar    1  UNL1        0.0177
     28 C         140.3476  140.0086  169.4399 C.ar    1  UNL1        0.0590
     29 CL        140.0437  140.0205  170.9087 Cl      1  UNL1       -0.0824
     30 C         139.2273  139.9964  168.4424 C.ar    1  UNL1        0.0480
     31 C         142.8918  140.0213  169.9660 C.3     1  UNL1        0.1644
     32 O         143.2573  138.7645  170.6987 O.3     1  UNL1       -0.3772
     33 H         142.5254  138.5045  171.2798 H       1  UNL1        0.2109
@<TRIPOS>UNITY_ATOM_ATTR
20 1
charge -1
@<TRIPOS>BOND
     1    20    21   ar
     2    21    22   ar
     3    21    14    1
     4    14    15   ar
     5    15    16   ar
     6    16    17   ar
     7    17    18   ar
     8    18    19   ar
     9    19     8    1
    10     8     9    1
    11     9    10    1
    12    10    11    1
    13    11     7    1
    14     7     1    1
    15     1     2    1
    16     2     3    1
    17     3     4    1
    18     4    23    1
    19    23    24    1
    20    24    25   ar
    21    25    26   ar
    22    26    27   ar
    23    27    31    1
    24    31    32    1
    25    27    28   ar
    26    28    29    1
    27    28    30   ar
    28     4     5    1
    29     5     6    1
    30    11    12    1
    31    12    13    1
    32    19    14   ar
    33    13     8    1
    34     6     1    1
    35    30    24   ar
    36    32    33    1
