@<TRIPOS>MOLECULE
*****
 37 40 0 0 0
SMALL
GASTEIGER

@<TRIPOS>ATOM
      1 C         141.1884  144.8802  162.4932 C.ar    1  UNL1        0.0008
      2 C         141.8794  145.6565  163.5748 C.ar    1  UNL1       -0.0024
      3 C         143.3283  145.4046  163.8700 C.ar    1  UNL1        0.0028
      4 C         144.0862  144.3765  163.0836 C.ar    1  UNL1        0.0369
      5 C         143.3952  143.6001  162.0019 C.ar    1  UNL1        0.1389
      6 C         141.9463  143.8520  161.7068 C.ar    1  UNL1        0.0343
      7 C         139.7394  145.1321  162.1980 C.3     1  UNL1        0.1239
      8 C         138.4197  142.9240  161.8335 C.2     1  UNL1        0.4100
      9 O         139.1788  142.6800  160.5630 O.2     1  UNL1       -0.2258
     10 N         138.7000  144.1501  162.6510 N.am    1  UNL1       -0.2363
     11 O         137.3802  141.9420  162.2865 O.3     1  UNL1       -0.4101
     12 C         138.9831  137.1676  165.5477 C.3     1  UNL1        0.0310
     13 C         138.5824  138.3612  164.7324 C.ar    1  UNL1       -0.0217
     14 C         138.5613  138.2739  163.2350 C.ar    1  UNL1       -0.0011
     15 C         138.1606  139.4675  162.4197 C.ar    1  UNL1        0.0373
     16 C         137.7809  140.7485  163.1018 C.ar    1  UNL1        0.1500
     17 C         137.8021  140.8358  164.5991 C.ar    1  UNL1        0.0373
     18 C         138.2028  139.6421  165.4144 C.ar    1  UNL1       -0.0011
     19 C         137.9408  144.3941  163.9215 C.3     1  UNL1        0.1388
     20 C         138.6770  144.5234  165.2220 C.2     1  UNL1        0.0706
     21 O         138.2265  145.5264  166.2423 O.co2   1  UNL1       -0.5474
     22 O         139.8636  143.6497  165.5022 O.co2   1  UNL1       -0.5474
     23 O         144.1531  142.5720  161.2156 O.3     1  UNL1       -0.4689
     24 C         144.8609  141.4563  161.9258 C.3     1  UNL1        0.2537
     25 C         144.1280  140.6279  162.9389 C.ar    1  UNL1        0.1359
     26 N         143.6951  141.0811  164.3017 N.ar    1  UNL1       -0.2093
     27 C         142.9988  139.9341  164.9723 C.ar    1  UNL1        0.2290
     28 O         143.0013  138.7720  164.0239 O.2     1  UNL1       -0.4391
     29 C         143.6992  139.2008  162.7671 C.ar    1  UNL1        0.1421
     30 C         143.9282  138.3515  161.5521 C.3     1  UNL1        0.0740
     31 C         142.4044  139.9470  166.3493 C.ar    1  UNL1        0.0536
     32 C         141.2191  140.8170  166.6465 C.ar    1  UNL1        0.0055
     33 C         140.6246  140.8300  168.0236 C.ar    1  UNL1        0.0115
     34 C         141.2154  139.9728  169.1036 C.ar    1  UNL1        0.0577
     35 CL        140.6209  139.9857  170.4807 Cl      1  UNL1       -0.0822
     36 C         142.4006  139.1028  168.8064 C.ar    1  UNL1        0.0115
     37 C         142.9951  139.0899  167.4293 C.ar    1  UNL1        0.0055
@<TRIPOS>UNITY_ATOM_ATTR
21 1
charge -1
@<TRIPOS>BOND
     1    12    13    1
     2    13    14   ar
     3    14    15   ar
     4    15    16   ar
     5    16    11    1
     6    11     8    1
     7     8     9    2
     8     8    10   am
     9    10    19    1
    10    19    20    1
    11    20    21   ar
    12    20    22   ar
    13    10     7    1
    14     7     1    1
    15     1     2   ar
    16     2     3   ar
    17     3     4   ar
    18     4     5   ar
    19     5    23    1
    20    23    24    1
    21    24    25    1
    22    25    26   ar
    23    26    27   ar
    24    27    31    1
    25    31    32   ar
    26    32    33   ar
    27    33    34   ar
    28    34    35    1
    29    34    36   ar
    30    36    37   ar
    31    27    28   ar
    32    28    29   ar
    33    29    30    1
    34     5     6   ar
    35    16    17   ar
    36    17    18   ar
    37    18    13   ar
    38     6     1   ar
    39    29    25   ar
    40    37    31   ar
@<TRIPOS>MOLECULE
*****
 37 40 0 0 0
SMALL
GASTEIGER

@<TRIPOS>ATOM
      1 C         142.8087  143.3135  161.6043 C.ar    1  UNL1        0.0008
      2 C         143.7148  144.1042  162.5008 C.ar    1  UNL1       -0.0024
      3 C         143.1539  145.2039  163.3528 C.ar    1  UNL1        0.0028
      4 C         141.6868  145.5130  163.3084 C.ar    1  UNL1        0.0369
      5 C         140.7805  144.7223  162.4119 C.ar    1  UNL1        0.1389
      6 C         141.3415  143.6226  161.5599 C.ar    1  UNL1        0.0343
      7 C         143.3696  142.2138  160.7523 C.3     1  UNL1        0.1239
      8 C         141.9940  140.0098  160.7730 C.2     1  UNL1        0.4100
      9 O         140.9289  140.6669  159.9461 O.2     1  UNL1       -0.2258
     10 N         143.2144  140.7833  161.1761 N.am    1  UNL1       -0.2363
     11 O         141.8388  138.5794  161.1968 O.3     1  UNL1       -0.4101
     12 C         138.4035  137.2059  165.9203 C.3     1  UNL1        0.0310
     13 C         139.2623  137.5492  164.7395 C.ar    1  UNL1       -0.0217
     14 C         140.7407  137.7325  164.9152 C.ar    1  UNL1       -0.0011
     15 C         141.5995  138.0759  163.7344 C.ar    1  UNL1        0.0373
     16 C         140.9800  138.2360  162.3776 C.ar    1  UNL1        0.1500
     17 C         139.5016  138.0527  162.2019 C.ar    1  UNL1        0.0373
     18 C         138.6428  137.7093  163.3828 C.ar    1  UNL1       -0.0011
     19 C         144.2795  140.1263  162.0030 C.3     1  UNL1        0.1388
     20 C         144.7791  140.7934  163.2501 C.2     1  UNL1        0.0706
     21 O         146.0895  141.5234  163.2368 O.co2   1  UNL1       -0.5474
     22 O         143.9683  140.7307  164.5106 O.co2   1  UNL1       -0.5474
     23 O         139.3134  145.0314  162.3675 O.3     1  UNL1       -0.4689
     24 C         138.4001  144.4882  163.4262 C.3     1  UNL1        0.2537
     25 C         138.8005  143.2746  164.2115 C.ar    1  UNL1        0.1359
     26 N         139.6801  143.2613  165.4265 N.ar    1  UNL1       -0.2093
     27 C         139.8148  141.8397  165.8857 C.ar    1  UNL1        0.2290
     28 O         139.0184  140.9743  164.9545 O.2     1  UNL1       -0.4391
     29 C         138.3916  141.8612  163.9198 C.ar    1  UNL1        0.1421
     30 C         137.5105  141.4133  162.7915 C.3     1  UNL1        0.0740
     31 C         140.6067  141.3665  167.0684 C.ar    1  UNL1        0.0536
     32 C         141.9627  141.9458  167.3434 C.ar    1  UNL1        0.0055
     33 C         142.7548  141.4727  168.5261 C.ar    1  UNL1        0.0115
     34 C         142.1907  140.4200  169.4338 C.ar    1  UNL1        0.0577
     35 CL        142.9827  139.9468  170.6166 Cl      1  UNL1       -0.0822
     36 C         140.8348  139.8406  169.1588 C.ar    1  UNL1        0.0115
     37 C         140.0428  140.3139  167.9761 C.ar    1  UNL1        0.0055
@<TRIPOS>UNITY_ATOM_ATTR
21 1
charge -1
@<TRIPOS>BOND
     1    12    13    1
     2    13    14   ar
     3    14    15   ar
     4    15    16   ar
     5    16    11    1
     6    11     8    1
     7     8     9    2
     8     8    10   am
     9    10    19    1
    10    19    20    1
    11    20    21   ar
    12    20    22   ar
    13    10     7    1
    14     7     1    1
    15     1     2   ar
    16     2     3   ar
    17     3     4   ar
    18     4     5   ar
    19     5    23    1
    20    23    24    1
    21    24    25    1
    22    25    26   ar
    23    26    27   ar
    24    27    31    1
    25    31    32   ar
    26    32    33   ar
    27    33    34   ar
    28    34    35    1
    29    34    36   ar
    30    36    37   ar
    31    27    28   ar
    32    28    29   ar
    33    29    30    1
    34     5     6   ar
    35    16    17   ar
    36    17    18   ar
    37    18    13   ar
    38     6     1   ar
    39    29    25   ar
    40    37    31   ar
@<TRIPOS>MOLECULE
*****
 37 40 0 0 0
SMALL
GASTEIGER

@<TRIPOS>ATOM
      1 C         140.9750  142.2575  159.1510 C.ar    1  UNL1        0.0008
      2 C         141.9137  143.2051  158.4649 C.ar    1  UNL1       -0.0024
      3 C         141.8959  144.6635  158.8152 C.ar    1  UNL1        0.0028
      4 C         140.9393  145.1743  159.8516 C.ar    1  UNL1        0.0369
      5 C         140.0005  144.2266  160.5377 C.ar    1  UNL1        0.1389
      6 C         140.0184  142.7682  160.1874 C.ar    1  UNL1        0.0343
      7 C         140.9928  140.7991  158.8006 C.3     1  UNL1        0.1239
      8 C         139.9292  138.7931  160.0636 C.2     1  UNL1        0.4100
      9 O         138.7389  138.8507  159.1527 O.2     1  UNL1       -0.2258
     10 N         141.0562  139.7673  159.8876 N.am    1  UNL1       -0.2363
     11 O         139.9926  137.7614  161.1506 O.3     1  UNL1       -0.4101
     12 C         138.4722  139.2242  166.7673 C.3     1  UNL1        0.0310
     13 C         138.8522  138.8585  165.3632 C.ar    1  UNL1       -0.0217
     14 C         138.3519  139.6805  164.2125 C.ar    1  UNL1       -0.0011
     15 C         138.7320  139.3148  162.8083 C.ar    1  UNL1        0.0373
     16 C         139.6125  138.1271  162.5547 C.ar    1  UNL1        0.1500
     17 C         140.1128  137.3052  163.7054 C.ar    1  UNL1        0.0373
     18 C         139.7327  137.6709  165.1097 C.ar    1  UNL1       -0.0011
     19 C         142.2465  139.7098  160.7986 C.3     1  UNL1        0.1388
     20 C         143.4559  138.9156  160.4030 C.2     1  UNL1        0.0706
     21 O         144.3164  139.3767  159.2641 O.co2   1  UNL1       -0.5474
     22 O         143.8049  137.6603  161.1463 O.co2   1  UNL1       -0.5474
     23 O         139.0440  144.7373  161.5741 O.3     1  UNL1       -0.4689
     24 C         139.5595  145.2206  162.8972 C.3     1  UNL1        0.2537
     25 C         139.8618  144.2373  163.9889 C.ar    1  UNL1        0.1359
     26 N         140.8447  143.1070  163.9101 N.ar    1  UNL1       -0.2093
     27 C         140.8246  142.3828  165.2235 C.ar    1  UNL1        0.2290
     28 O         139.8292  143.0655  166.1141 O.2     1  UNL1       -0.4391
     29 C         139.2341  144.2117  165.3511 C.ar    1  UNL1        0.1421
     30 C         138.1941  145.1648  165.8607 C.3     1  UNL1        0.0740
     31 C         141.6542  141.1860  165.5832 C.ar    1  UNL1        0.0536
     32 C         142.3290  140.3899  164.5058 C.ar    1  UNL1        0.0055
     33 C         143.1587  139.1931  164.8654 C.ar    1  UNL1        0.0115
     34 C         143.3135  138.7924  166.3026 C.ar    1  UNL1        0.0577
     35 CL        144.1431  137.5955  166.6623 Cl      1  UNL1       -0.0822
     36 C         142.6387  139.5884  167.3801 C.ar    1  UNL1        0.0115
     37 C         141.8090  140.7853  167.0204 C.ar    1  UNL1        0.0055
@<TRIPOS>UNITY_ATOM_ATTR
21 1
charge -1
@<TRIPOS>BOND
     1    12    13    1
     2    13    14   ar
     3    14    15   ar
     4    15    16   ar
     5    16    11    1
     6    11     8    1
     7     8     9    2
     8     8    10   am
     9    10    19    1
    10    19    20    1
    11    20    21   ar
    12    20    22   ar
    13    10     7    1
    14     7     1    1
    15     1     2   ar
    16     2     3   ar
    17     3     4   ar
    18     4     5   ar
    19     5    23    1
    20    23    24    1
    21    24    25    1
    22    25    26   ar
    23    26    27   ar
    24    27    31    1
    25    31    32   ar
    26    32    33   ar
    27    33    34   ar
    28    34    35    1
    29    34    36   ar
    30    36    37   ar
    31    27    28   ar
    32    28    29   ar
    33    29    30    1
    34     5     6   ar
    35    16    17   ar
    36    17    18   ar
    37    18    13   ar
    38     6     1   ar
    39    29    25   ar
    40    37    31   ar
@<TRIPOS>MOLECULE
*****
 37 40 0 0 0
SMALL
GASTEIGER

@<TRIPOS>ATOM
      1 C         143.2072  143.4856  161.6749 C.ar    1  UNL1        0.0008
      2 C         144.1367  144.0833  162.6892 C.ar    1  UNL1       -0.0024
      3 C         143.6290  145.1083  163.6595 C.ar    1  UNL1        0.0028
      4 C         142.1918  145.5357  163.6156 C.ar    1  UNL1        0.0369
      5 C         141.2623  144.9380  162.6012 C.ar    1  UNL1        0.1389
      6 C         141.7700  143.9130  161.6309 C.ar    1  UNL1        0.0343
      7 C         143.7149  142.4606  160.7046 C.3     1  UNL1        0.1239
      8 C         143.7381  140.0749  161.7332 C.2     1  UNL1        0.4100
      9 O         144.8267  140.4924  162.6769 O.2     1  UNL1       -0.2258
     10 N         143.1822  141.0590  160.7470 N.am    1  UNL1       -0.2363
     11 O         143.2053  138.6734  161.7756 O.3     1  UNL1       -0.4101
     12 C         138.6341  137.3105  165.4152 C.3     1  UNL1        0.0310
     13 C         139.7769  137.6512  164.5053 C.ar    1  UNL1       -0.0217
     14 C         139.5651  137.7001  163.0211 C.ar    1  UNL1       -0.0011
     15 C         140.7079  138.0408  162.1113 C.ar    1  UNL1        0.0373
     16 C         142.0626  138.3327  162.6855 C.ar    1  UNL1        0.1500
     17 C         142.2744  138.2838  164.1697 C.ar    1  UNL1        0.0373
     18 C         141.1315  137.9431  165.0796 C.ar    1  UNL1       -0.0011
     19 C         142.0935  140.6416  159.8033 C.3     1  UNL1        0.1388
     20 C         142.4421  140.0988  158.4492 C.2     1  UNL1        0.0706
     21 O         143.6073  139.1672  158.2917 O.co2   1  UNL1       -0.5474
     22 O         141.6257  140.4875  157.2524 O.co2   1  UNL1       -0.5474
     23 O         139.8252  145.3654  162.5572 O.3     1  UNL1       -0.4689
     24 C         138.8515  144.8270  163.5633 C.3     1  UNL1        0.2537
     25 C         139.0948  143.4922  164.2027 C.ar    1  UNL1        0.1359
     26 N         139.9093  143.2412  165.4372 N.ar    1  UNL1       -0.2093
     27 C         139.8843  141.7678  165.7174 C.ar    1  UNL1        0.2290
     28 O         139.0544  141.1081  164.6562 O.2     1  UNL1       -0.4391
     29 C         138.5664  142.1739  163.7200 C.ar    1  UNL1        0.1421
     30 C         137.7020  141.9590  162.5132 C.3     1  UNL1        0.0740
     31 C         140.5689  141.0757  166.8584 C.ar    1  UNL1        0.0536
     32 C         142.0593  140.9062  166.8473 C.ar    1  UNL1        0.0055
     33 C         142.7440  140.2140  167.9884 C.ar    1  UNL1        0.0115
     34 C         141.9383  139.6913  169.1407 C.ar    1  UNL1        0.0577
     35 CL        142.6230  138.9991  170.2818 Cl      1  UNL1       -0.0822
     36 C         140.4479  139.8608  169.1518 C.ar    1  UNL1        0.0115
     37 C         139.7633  140.5530  168.0107 C.ar    1  UNL1        0.0055
@<TRIPOS>UNITY_ATOM_ATTR
21 1
charge -1
@<TRIPOS>BOND
     1    12    13    1
     2    13    14   ar
     3    14    15   ar
     4    15    16   ar
     5    16    11    1
     6    11     8    1
     7     8     9    2
     8     8    10   am
     9    10    19    1
    10    19    20    1
    11    20    21   ar
    12    20    22   ar
    13    10     7    1
    14     7     1    1
    15     1     2   ar
    16     2     3   ar
    17     3     4   ar
    18     4     5   ar
    19     5    23    1
    20    23    24    1
    21    24    25    1
    22    25    26   ar
    23    26    27   ar
    24    27    31    1
    25    31    32   ar
    26    32    33   ar
    27    33    34   ar
    28    34    35    1
    29    34    36   ar
    30    36    37   ar
    31    27    28   ar
    32    28    29   ar
    33    29    30    1
    34     5     6   ar
    35    16    17   ar
    36    17    18   ar
    37    18    13   ar
    38     6     1   ar
    39    29    25   ar
    40    37    31   ar
@<TRIPOS>MOLECULE
*****
 37 40 0 0 0
SMALL
GASTEIGER

@<TRIPOS>ATOM
      1 C         140.2449  143.9099  161.2786 C.ar    1  UNL1        0.0008
      2 C         140.0146  145.2817  161.8398 C.ar    1  UNL1       -0.0024
      3 C         138.8447  145.5358  162.7435 C.ar    1  UNL1        0.0028
      4 C         137.9050  144.4179  163.0860 C.ar    1  UNL1        0.0369
      5 C         138.1352  143.0460  162.5248 C.ar    1  UNL1        0.1389
      6 C         139.3051  142.7920  161.6211 C.ar    1  UNL1        0.0343
      7 C         141.4148  143.6559  160.3749 C.3     1  UNL1        0.1239
      8 C         142.7365  141.4214  160.4771 C.2     1  UNL1        0.4100
      9 O         141.7146  140.7764  159.5885 O.2     1  UNL1       -0.2258
     10 N         142.5866  142.8612  160.8703 N.am    1  UNL1       -0.2363
     11 O         143.9082  140.6268  160.9725 O.3     1  UNL1       -0.4101
     12 C         143.7512  138.1340  166.4278 C.3     1  UNL1        0.0310
     13 C         143.7904  138.7571  165.0640 C.ar    1  UNL1       -0.0217
     14 C         142.7347  138.4181  164.0538 C.ar    1  UNL1       -0.0011
     15 C         142.7740  139.0413  162.6900 C.ar    1  UNL1        0.0373
     16 C         143.8690  140.0036  162.3363 C.ar    1  UNL1        0.1500
     17 C         144.9247  140.3426  163.3465 C.ar    1  UNL1        0.0373
     18 C         144.8854  139.7194  164.7104 C.ar    1  UNL1       -0.0011
     19 C         143.6084  143.5063  161.7589 C.3     1  UNL1        0.1388
     20 C         143.2790  143.7962  163.1933 C.2     1  UNL1        0.0706
     21 O         143.7968  145.0445  163.8443 O.co2   1  UNL1       -0.5474
     22 O         142.4318  142.8378  163.9768 O.co2   1  UNL1       -0.5474
     23 O         137.1955  141.9282  162.8673 O.3     1  UNL1       -0.4689
     24 C         137.7324  140.5552  163.1442 C.3     1  UNL1        0.2537
     25 C         138.6688  140.3341  164.2950 C.ar    1  UNL1        0.1359
     26 N         139.1979  141.3924  165.2171 N.ar    1  UNL1       -0.2093
     27 C         140.0965  140.7282  166.2178 C.ar    1  UNL1        0.2290
     28 O         140.1229  139.2595  165.9142 O.2     1  UNL1       -0.4391
     29 C         139.2405  139.0159  164.7258 C.ar    1  UNL1        0.1421
     30 C         138.9762  137.6874  164.0814 C.3     1  UNL1        0.0740
     31 C         140.8386  141.4126  167.3272 C.ar    1  UNL1        0.0536
     32 C         140.0813  142.1285  168.4060 C.ar    1  UNL1        0.0055
     33 C         140.8232  142.8130  169.5156 C.ar    1  UNL1        0.0115
     34 C         142.3226  142.7815  169.5462 C.ar    1  UNL1        0.0577
     35 CL        143.0647  143.4659  170.6557 Cl      1  UNL1       -0.0822
     36 C         143.0799  142.0655  168.4673 C.ar    1  UNL1        0.0115
     37 C         142.3379  141.3811  167.3578 C.ar    1  UNL1        0.0055
@<TRIPOS>UNITY_ATOM_ATTR
21 1
charge -1
@<TRIPOS>BOND
     1    12    13    1
     2    13    14   ar
     3    14    15   ar
     4    15    16   ar
     5    16    11    1
     6    11     8    1
     7     8     9    2
     8     8    10   am
     9    10    19    1
    10    19    20    1
    11    20    21   ar
    12    20    22   ar
    13    10     7    1
    14     7     1    1
    15     1     2   ar
    16     2     3   ar
    17     3     4   ar
    18     4     5   ar
    19     5    23    1
    20    23    24    1
    21    24    25    1
    22    25    26   ar
    23    26    27   ar
    24    27    31    1
    25    31    32   ar
    26    32    33   ar
    27    33    34   ar
    28    34    35    1
    29    34    36   ar
    30    36    37   ar
    31    27    28   ar
    32    28    29   ar
    33    29    30    1
    34     5     6   ar
    35    16    17   ar
    36    17    18   ar
    37    18    13   ar
    38     6     1   ar
    39    29    25   ar
    40    37    31   ar
@<TRIPOS>MOLECULE
*****
 37 40 0 0 0
SMALL
GASTEIGER

@<TRIPOS>ATOM
      1 C         142.8863  142.5969  159.8725 C.ar    1  UNL1        0.0008
      2 C         142.2219  142.4403  158.5368 C.ar    1  UNL1       -0.0024
      3 C         141.0495  143.3037  158.1765 C.ar    1  UNL1        0.0028
      4 C         140.5413  144.3237  159.1519 C.ar    1  UNL1        0.0369
      5 C         141.2057  144.4803  160.4876 C.ar    1  UNL1        0.1389
      6 C         142.3782  143.6169  160.8479 C.ar    1  UNL1        0.0343
      7 C         144.0588  141.7335  160.2328 C.3     1  UNL1        0.1239
      8 C         143.7234  139.2141  160.7717 C.2     1  UNL1        0.4100
      9 O         143.7108  138.9019  159.3046 O.2     1  UNL1       -0.2258
     10 N         143.8974  140.6299  161.2358 N.am    1  UNL1       -0.2363
     11 O         143.5620  138.1105  161.7747 O.3     1  UNL1       -0.4101
     12 C         138.5811  137.7877  165.1043 C.3     1  UNL1        0.0310
     13 C         139.8263  137.8684  164.2719 C.ar    1  UNL1       -0.0217
     14 C         141.1729  137.8438  164.9324 C.ar    1  UNL1       -0.0011
     15 C         142.4181  137.9245  164.1000 C.ar    1  UNL1        0.0373
     16 C         142.3168  138.0298  162.6071 C.ar    1  UNL1        0.1500
     17 C         140.9703  138.0544  161.9466 C.ar    1  UNL1        0.0373
     18 C         139.7250  137.9737  162.7791 C.ar    1  UNL1       -0.0011
     19 C         143.9100  140.9421  162.7029 C.3     1  UNL1        0.1388
     20 C         145.1704  140.7651  163.4965 C.2     1  UNL1        0.0706
     21 O         146.3140  141.7179  163.3104 O.co2   1  UNL1       -0.5474
     22 O         145.2874  139.6354  164.4764 O.co2   1  UNL1       -0.5474
     23 O         140.6976  145.5003  161.4630 O.3     1  UNL1       -0.4689
     24 C         139.6255  145.1304  162.4447 C.3     1  UNL1        0.2537
     25 C         139.6713  143.8022  163.1402 C.ar    1  UNL1        0.1359
     26 N         140.4001  143.4995  164.4159 N.ar    1  UNL1       -0.2093
     27 C         140.1756  142.0537  164.7463 C.ar    1  UNL1        0.2290
     28 O         139.3080  141.4627  163.6748 O.2     1  UNL1       -0.4391
     29 C         138.9963  142.5433  162.6822 C.ar    1  UNL1        0.1421
     30 C         138.1571  142.3917  161.4482 C.3     1  UNL1        0.0740
     31 C         140.7226  141.3265  165.9387 C.ar    1  UNL1        0.0536
     32 C         142.2030  141.1353  166.0864 C.ar    1  UNL1        0.0055
     33 C         142.7501  140.4081  167.2789 C.ar    1  UNL1        0.0115
     34 C         141.8166  139.8722  168.3236 C.ar    1  UNL1        0.0577
     35 CL        142.3636  139.1450  169.5161 Cl      1  UNL1       -0.0822
     36 C         140.3362  140.0634  168.1759 C.ar    1  UNL1        0.0115
     37 C         139.7892  140.7906  166.9834 C.ar    1  UNL1        0.0055
@<TRIPOS>UNITY_ATOM_ATTR
21 1
charge -1
@<TRIPOS>BOND
     1    12    13    1
     2    13    14   ar
     3    14    15   ar
     4    15    16   ar
     5    16    11    1
     6    11     8    1
     7     8     9    2
     8     8    10   am
     9    10    19    1
    10    19    20    1
    11    20    21   ar
    12    20    22   ar
    13    10     7    1
    14     7     1    1
    15     1     2   ar
    16     2     3   ar
    17     3     4   ar
    18     4     5   ar
    19     5    23    1
    20    23    24    1
    21    24    25    1
    22    25    26   ar
    23    26    27   ar
    24    27    31    1
    25    31    32   ar
    26    32    33   ar
    27    33    34   ar
    28    34    35    1
    29    34    36   ar
    30    36    37   ar
    31    27    28   ar
    32    28    29   ar
    33    29    30    1
    34     5     6   ar
    35    16    17   ar
    36    17    18   ar
    37    18    13   ar
    38     6     1   ar
    39    29    25   ar
    40    37    31   ar
@<TRIPOS>MOLECULE
*****
 37 40 0 0 0
SMALL
GASTEIGER

@<TRIPOS>ATOM
      1 C         140.0913  142.4926  158.5067 C.ar    1  UNL1        0.0008
      2 C         141.3550  142.8661  157.7901 C.ar    1  UNL1       -0.0024
      3 C         142.0295  144.1719  158.0903 C.ar    1  UNL1        0.0028
      4 C         141.4404  145.1040  159.1071 C.ar    1  UNL1        0.0369
      5 C         140.1766  144.7305  159.8237 C.ar    1  UNL1        0.1389
      6 C         139.5021  143.4248  159.5235 C.ar    1  UNL1        0.0343
      7 C         139.4167  141.1869  158.2065 C.3     1  UNL1        0.1239
      8 C         139.3141  139.5463  160.2185 C.2     1  UNL1        0.4100
      9 O         138.2863  140.4181  160.8769 O.2     1  UNL1       -0.2258
     10 N         139.8793  139.9307  158.8832 N.am    1  UNL1       -0.2363
     11 O         139.7767  138.2902  160.8952 O.3     1  UNL1       -0.4101
     12 C         142.8860  138.6120  166.0165 C.3     1  UNL1        0.0310
     13 C         142.1087  138.5316  164.7362 C.ar    1  UNL1       -0.0217
     14 C         141.1427  137.4056  164.5148 C.ar    1  UNL1       -0.0011
     15 C         140.3653  137.3251  163.2345 C.ar    1  UNL1        0.0373
     16 C         140.5540  138.3706  162.1755 C.ar    1  UNL1        0.1500
     17 C         141.5201  139.4966  162.3969 C.ar    1  UNL1        0.0373
     18 C         142.2974  139.5770  163.6773 C.ar    1  UNL1       -0.0011
     19 C         140.9071  139.0589  158.2247 C.3     1  UNL1        0.1388
     20 C         142.3630  139.2564  158.5272 C.2     1  UNL1        0.0706
     21 O         142.7902  140.3177  159.4974 O.co2   1  UNL1       -0.5474
     22 O         143.3916  138.3925  157.8596 O.co2   1  UNL1       -0.5474
     23 O         139.5875  145.6627  160.8405 O.3     1  UNL1       -0.4689
     24 C         140.2857  145.8827  162.1498 C.3     1  UNL1        0.2537
     25 C         140.5342  144.7254  163.0710 C.ar    1  UNL1        0.1359
     26 N         139.5327  143.6797  163.4631 N.ar    1  UNL1       -0.2093
     27 C         140.2074  142.7185  164.3963 C.ar    1  UNL1        0.2290
     28 O         141.6259  143.1700  164.5810 O.2     1  UNL1       -0.4391
     29 C         141.8278  144.4104  163.7619 C.ar    1  UNL1        0.1421
     30 C         143.1001  145.1975  163.6529 C.3     1  UNL1        0.0740
     31 C         139.5747  141.5168  165.0331 C.ar    1  UNL1        0.0536
     32 C         139.9646  141.1123  166.4239 C.ar    1  UNL1        0.0055
     33 C         139.3319  139.9105  167.0607 C.ar    1  UNL1        0.0115
     34 C         138.3093  139.1132  166.3066 C.ar    1  UNL1        0.0577
     35 CL        137.6766  137.9115  166.9434 Cl      1  UNL1       -0.0822
     36 C         137.9194  139.5177  164.9158 C.ar    1  UNL1        0.0115
     37 C         138.5521  140.7195  164.2790 C.ar    1  UNL1        0.0055
@<TRIPOS>UNITY_ATOM_ATTR
21 1
charge -1
@<TRIPOS>BOND
     1    12    13    1
     2    13    14   ar
     3    14    15   ar
     4    15    16   ar
     5    16    11    1
     6    11     8    1
     7     8     9    2
     8     8    10   am
     9    10    19    1
    10    19    20    1
    11    20    21   ar
    12    20    22   ar
    13    10     7    1
    14     7     1    1
    15     1     2   ar
    16     2     3   ar
    17     3     4   ar
    18     4     5   ar
    19     5    23    1
    20    23    24    1
    21    24    25    1
    22    25    26   ar
    23    26    27   ar
    24    27    31    1
    25    31    32   ar
    26    32    33   ar
    27    33    34   ar
    28    34    35    1
    29    34    36   ar
    30    36    37   ar
    31    27    28   ar
    32    28    29   ar
    33    29    30    1
    34     5     6   ar
    35    16    17   ar
    36    17    18   ar
    37    18    13   ar
    38     6     1   ar
    39    29    25   ar
    40    37    31   ar
@<TRIPOS>MOLECULE
*****
 37 40 0 0 0
SMALL
GASTEIGER

@<TRIPOS>ATOM
      1 C         140.6447  144.1692  161.0448 C.ar    1  UNL1        0.0008
      2 C         140.3624  145.4964  161.6843 C.ar    1  UNL1       -0.0024
      3 C         139.0851  145.7072  162.4421 C.ar    1  UNL1        0.0028
      4 C         138.0903  144.5909  162.5604 C.ar    1  UNL1        0.0369
      5 C         138.3726  143.2637  161.9210 C.ar    1  UNL1        0.1389
      6 C         139.6498  143.0528  161.1632 C.ar    1  UNL1        0.0343
      7 C         141.9219  143.9584  160.2870 C.3     1  UNL1        0.1239
      8 C         143.8608  143.4797  161.9488 C.2     1  UNL1        0.4100
      9 O         143.7024  144.8537  162.5294 O.2     1  UNL1       -0.2258
     10 N         142.9706  143.0321  160.8276 N.am    1  UNL1       -0.2363
     11 O         144.9095  142.5534  162.4894 O.3     1  UNL1       -0.4101
     12 C         143.4408  138.4251  166.5881 C.3     1  UNL1        0.0310
     13 C         143.8080  139.4571  165.5634 C.ar    1  UNL1       -0.0217
     14 C         143.1124  140.7861  165.5548 C.ar    1  UNL1       -0.0011
     15 C         143.4796  141.8182  164.5302 C.ar    1  UNL1        0.0373
     16 C         144.5423  141.5213  163.5140 C.ar    1  UNL1        0.1500
     17 C         145.2379  140.1924  163.5226 C.ar    1  UNL1        0.0373
     18 C         144.8707  139.1603  164.5473 C.ar    1  UNL1       -0.0011
     19 C         143.1290  141.6581  160.2470 C.3     1  UNL1        0.1388
     20 C         142.0749  140.6176  160.4841 C.2     1  UNL1        0.0706
     21 O         141.3520  140.0038  159.3219 O.co2   1  UNL1       -0.5474
     22 O         141.7438  140.1908  161.8835 O.co2   1  UNL1       -0.5474
     23 O         137.3777  142.1474  162.0394 O.3     1  UNL1       -0.4689
     24 C         137.8522  140.7357  162.2187 C.3     1  UNL1        0.2537
     25 C         138.4494  140.3055  163.5257 C.ar    1  UNL1        0.1359
     26 N         138.7069  141.1886  164.7106 N.ar    1  UNL1       -0.2093
     27 C         139.3106  140.3456  165.7945 C.ar    1  UNL1        0.2290
     28 O         139.4261  138.9415  165.2796 O.2     1  UNL1       -0.4391
     29 C         138.8938  138.9167  163.8774 C.ar    1  UNL1        0.1421
     30 C         138.8192  137.7143  162.9838 C.3     1  UNL1        0.0740
     31 C         139.7258  140.8229  167.1545 C.ar    1  UNL1        0.0536
     32 C         139.5193  139.9447  168.3529 C.ar    1  UNL1        0.0055
     33 C         139.9344  140.4219  169.7131 C.ar    1  UNL1        0.0115
     34 C         140.5562  141.7775  169.8747 C.ar    1  UNL1        0.0577
     35 CL        140.9714  142.2548  171.2348 Cl      1  UNL1       -0.0822
     36 C         140.7627  142.6556  168.6763 C.ar    1  UNL1        0.0115
     37 C         140.3475  142.1783  167.3162 C.ar    1  UNL1        0.0055
@<TRIPOS>UNITY_ATOM_ATTR
21 1
charge -1
@<TRIPOS>BOND
     1    12    13    1
     2    13    14   ar
     3    14    15   ar
     4    15    16   ar
     5    16    11    1
     6    11     8    1
     7     8     9    2
     8     8    10   am
     9    10    19    1
    10    19    20    1
    11    20    21   ar
    12    20    22   ar
    13    10     7    1
    14     7     1    1
    15     1     2   ar
    16     2     3   ar
    17     3     4   ar
    18     4     5   ar
    19     5    23    1
    20    23    24    1
    21    24    25    1
    22    25    26   ar
    23    26    27   ar
    24    27    31    1
    25    31    32   ar
    26    32    33   ar
    27    33    34   ar
    28    34    35    1
    29    34    36   ar
    30    36    37   ar
    31    27    28   ar
    32    28    29   ar
    33    29    30    1
    34     5     6   ar
    35    16    17   ar
    36    17    18   ar
    37    18    13   ar
    38     6     1   ar
    39    29    25   ar
    40    37    31   ar
@<TRIPOS>MOLECULE
*****
 37 40 0 0 0
SMALL
GASTEIGER

@<TRIPOS>ATOM
      1 C         138.6481  140.9578  160.7440 C.ar    1  UNL1        0.0008
      2 C         137.5406  140.1779  161.3881 C.ar    1  UNL1       -0.0024
      3 C         137.7182  138.7151  161.6689 C.ar    1  UNL1        0.0028
      4 C         139.0034  138.0323  161.3057 C.ar    1  UNL1        0.0369
      5 C         140.1111  138.8123  160.6615 C.ar    1  UNL1        0.1389
      6 C         139.9334  140.2750  160.3807 C.ar    1  UNL1        0.0343
      7 C         138.4705  142.4205  160.4632 C.3     1  UNL1        0.1239
      8 C         138.8017  143.9434  162.5419 C.2     1  UNL1        0.4100
      9 O         137.5096  143.4418  163.1153 O.2     1  UNL1       -0.2258
     10 N         139.2822  143.4327  161.2158 N.am    1  UNL1       -0.2363
     11 O         139.6134  144.9556  163.2946 O.3     1  UNL1       -0.4101
     12 C         144.8977  143.3967  165.6706 C.3     1  UNL1        0.0310
     13 C         143.5767  143.7864  165.0766 C.ar    1  UNL1       -0.0217
     14 C         143.4964  144.9342  164.1143 C.ar    1  UNL1       -0.0011
     15 C         142.1753  145.3240  163.5203 C.ar    1  UNL1        0.0373
     16 C         140.9345  144.5658  163.8886 C.ar    1  UNL1        0.1500
     17 C         141.0148  143.4180  164.8509 C.ar    1  UNL1        0.0373
     18 C         142.3359  143.0283  165.4450 C.ar    1  UNL1       -0.0011
     19 C         140.5744  143.9343  160.6425 C.3     1  UNL1        0.1388
     20 C         140.6284  145.2776  159.9773 C.2     1  UNL1        0.0706
     21 O         139.5376  146.2786  160.2189 O.co2   1  UNL1       -0.5474
     22 O         141.7732  145.6201  159.0706 O.co2   1  UNL1       -0.5474
     23 O         141.3963  138.1295  160.2983 O.3     1  UNL1       -0.4689
     24 C         142.3534  137.7108  161.3747 C.3     1  UNL1        0.2537
     25 C         142.4669  138.5189  162.6332 C.ar    1  UNL1        0.1359
     26 N         141.6005  138.3821  163.8501 N.ar    1  UNL1       -0.2093
     27 C         142.0649  139.3843  164.8649 C.ar    1  UNL1        0.2290
     28 O         143.2184  140.1406  164.2753 O.2     1  UNL1       -0.4391
     29 C         143.4669  139.6057  162.8960 C.ar    1  UNL1        0.1421
     30 C         144.5288  140.0752  161.9464 C.3     1  UNL1        0.0740
     31 C         141.4788  139.5936  166.2296 C.ar    1  UNL1        0.0536
     32 C         142.3800  139.7123  167.4228 C.ar    1  UNL1        0.0055
     33 C         141.7940  139.9215  168.7876 C.ar    1  UNL1        0.0115
     34 C         140.3065  140.0121  168.9592 C.ar    1  UNL1        0.0577
     35 CL        139.7203  140.2213  170.3240 Cl      1  UNL1       -0.0822
     36 C         139.4053  139.8934  167.7661 C.ar    1  UNL1        0.0115
     37 C         139.9914  139.6841  166.4013 C.ar    1  UNL1        0.0055
@<TRIPOS>UNITY_ATOM_ATTR
21 1
charge -1
@<TRIPOS>BOND
     1    12    13    1
     2    13    14   ar
     3    14    15   ar
     4    15    16   ar
     5    16    11    1
     6    11     8    1
     7     8     9    2
     8     8    10   am
     9    10    19    1
    10    19    20    1
    11    20    21   ar
    12    20    22   ar
    13    10     7    1
    14     7     1    1
    15     1     2   ar
    16     2     3   ar
    17     3     4   ar
    18     4     5   ar
    19     5    23    1
    20    23    24    1
    21    24    25    1
    22    25    26   ar
    23    26    27   ar
    24    27    31    1
    25    31    32   ar
    26    32    33   ar
    27    33    34   ar
    28    34    35    1
    29    34    36   ar
    30    36    37   ar
    31    27    28   ar
    32    28    29   ar
    33    29    30    1
    34     5     6   ar
    35    16    17   ar
    36    17    18   ar
    37    18    13   ar
    38     6     1   ar
    39    29    25   ar
    40    37    31   ar
