@<TRIPOS>MOLECULE
*****
 34 38 0 0 0
SMALL
GASTEIGER

@<TRIPOS>ATOM
      1 N         143.5019  143.5306  162.4235 N.3     1  UNL1       -0.2726
      2 C         144.6669  143.0053  161.6380 C.3     1  UNL1        0.0721
      3 C         145.2074  141.8051  162.3573 C.3     1  UNL1        0.0190
      4 C         144.3766  141.5887  163.5873 C.3     1  UNL1        0.0202
      5 C         145.1234  140.3810  164.0706 C.3     1  UNL1        0.0062
      6 C         143.9585  140.9063  164.8561 C.3     1  UNL1        0.0259
      7 C         143.3225  142.6551  163.6282 C.3     1  UNL1        0.0724
      8 C         143.0446  140.8157  166.0420 C.ar    1  UNL1        0.0050
      9 C         142.1016  139.6568  166.1753 C.ar    1  UNL1       -0.0021
     10 C         141.1876  139.5662  167.3613 C.ar    1  UNL1        0.0037
     11 C         141.2167  140.6344  168.4139 C.ar    1  UNL1        0.0736
     12 C         142.1597  141.7933  168.2805 C.ar    1  UNL1        0.0332
     13 C         143.0736  141.8839  167.0946 C.ar    1  UNL1        0.1361
     14 F         144.0166  143.0427  166.9613 F       1  UNL1       -0.2045
     15 C         140.3028  140.5438  169.5998 C.3     1  UNL1        0.4186
     16 F         139.3887  140.4531  170.7858 F       1  UNL1       -0.1659
     17 F         141.4691  140.7687  170.5158 F       1  UNL1       -0.1659
     18 F         139.1364  140.3189  168.6838 F       1  UNL1       -0.1659
     19 C         142.6636  144.7222  162.0668 C.3     1  UNL1        0.0730
     20 C         141.5355  145.1407  162.9625 C.3     1  UNL1        0.0294
     21 C         140.2262  145.5695  162.3693 C.3     1  UNL1        0.0666
     22 S         138.9377  145.1194  162.9913 S.3     1  UNL1       -0.0756
     23 C         139.8316  142.7620  165.0634 C.3     1  UNL1        0.1340
     24 N         138.9423  142.5939  163.8672 N.ar    1  UNL1       -0.2884
     25 C         138.5314  143.6774  162.9148 C.ar    1  UNL1        0.1932
     26 N         137.6430  143.0660  161.8723 N.ar    1  UNL1       -0.1221
     27 N         137.5048  141.6045  162.1804 N.ar    1  UNL1       -0.1282
     28 C         138.3078  141.3127  163.4133 C.ar    1  UNL1        0.1683
     29 C         138.4511  139.9746  164.0760 C.ar    1  UNL1        0.0551
     30 C         138.0083  139.7903  165.4972 C.ar    1  UNL1        0.0062
     31 C         138.1516  138.4523  166.1599 C.ar    1  UNL1        0.0208
     32 C         138.7378  137.2986  165.4013 C.ar    1  UNL1        0.0989
     33 N         139.1807  137.4829  163.9800 N.ar    1  UNL1       -0.2422
     34 C         139.0373  138.8210  163.3174 C.ar    1  UNL1        0.1019
@<TRIPOS>BOND
     1    23    24    1
     2    24    25   ar
     3    25    22    1
     4    22    21    1
     5    21    20    1
     6    20    19    1
     7    19     1    1
     8     1     2    1
     9     2     3    1
    10     4     3    1
    11     4     5    1
    12     5     6    1
    13     6     8    1
    14     8     9   ar
    15     9    10   ar
    16    10    11   ar
    17    11    15    1
    18    15    16    1
    19    15    17    1
    20    15    18    1
    21    11    12   ar
    22    12    13   ar
    23    13    14    1
    24     4     7    1
    25    25    26   ar
    26    26    27   ar
    27    27    28   ar
    28    28    29    1
    29    29    30   ar
    30    30    31   ar
    31    31    32   ar
    32    32    33   ar
    33    33    34   ar
    34    28    24   ar
    35    34    29   ar
    36     7     1    1
    37     6     4    1
    38    13     8   ar
@<TRIPOS>MOLECULE
*****
 34 38 0 0 0
SMALL
GASTEIGER

@<TRIPOS>ATOM
      1 N         138.1836  140.5555  163.3116 N.3     1  UNL1       -0.2726
      2 C         138.0902  139.2045  162.6667 C.3     1  UNL1        0.0721
      3 C         138.9876  138.2681  163.4204 C.3     1  UNL1        0.0190
      4 C         139.6355  139.0405  164.5311 C.3     1  UNL1        0.0202
      5 C         140.4322  137.8926  165.0764 C.3     1  UNL1        0.0062
      6 C         140.5255  139.2436  165.7213 C.3     1  UNL1        0.0259
      7 C         139.1386  140.4542  164.4639 C.3     1  UNL1        0.0724
      8 C         141.0933  140.1409  166.7808 C.ar    1  UNL1        0.0050
      9 C         142.4689  140.7164  166.6181 C.ar    1  UNL1       -0.0021
     10 C         143.0366  141.6137  167.6776 C.ar    1  UNL1        0.0037
     11 C         142.2287  141.9355  168.8998 C.ar    1  UNL1        0.0736
     12 C         140.8531  141.3600  169.0625 C.ar    1  UNL1        0.0332
     13 C         140.2854  140.4627  168.0030 C.ar    1  UNL1        0.1361
     14 F         138.9099  139.8872  168.1657 F       1  UNL1       -0.2045
     15 C         142.7965  142.8328  169.9592 C.3     1  UNL1        0.4186
     16 F         143.3642  143.7302  171.0188 F       1  UNL1       -0.1659
     17 F         144.1842  142.4318  169.5552 F       1  UNL1       -0.1659
     18 F         141.4087  143.2338  170.3632 F       1  UNL1       -0.1659
     19 C         137.4506  141.7910  162.8800 C.3     1  UNL1        0.0730
     20 C         137.5224  143.0356  163.7142 C.3     1  UNL1        0.0294
     21 C         137.6733  144.3738  163.0535 C.3     1  UNL1        0.0666
     22 S         139.0321  144.8586  162.6430 S.3     1  UNL1       -0.0756
     23 C         141.1150  143.4632  164.7320 C.3     1  UNL1        0.1340
     24 N         141.0630  143.2306  163.2510 N.ar    1  UNL1       -0.2884
     25 C         140.1056  143.8719  162.2909 C.ar    1  UNL1        0.1932
     26 N         140.4101  143.3534  160.9166 N.ar    1  UNL1       -0.1221
     27 N         141.5558  142.3916  161.0275 N.ar    1  UNL1       -0.1282
     28 C         141.9593  142.3156  162.4702 C.ar    1  UNL1        0.1683
     29 C         143.0650  141.4727  163.0333 C.ar    1  UNL1        0.0551
     30 C         142.9244  139.9798  163.0726 C.ar    1  UNL1        0.0062
     31 C         144.0301  139.1369  163.6356 C.ar    1  UNL1        0.0208
     32 C         145.2764  139.7870  164.1594 C.ar    1  UNL1        0.0989
     33 N         145.4170  141.2799  164.1201 N.ar    1  UNL1       -0.2422
     34 C         144.3112  142.1227  163.5570 C.ar    1  UNL1        0.1019
@<TRIPOS>BOND
     1    23    24    1
     2    24    25   ar
     3    25    22    1
     4    22    21    1
     5    21    20    1
     6    20    19    1
     7    19     1    1
     8     1     2    1
     9     2     3    1
    10     4     3    1
    11     4     5    1
    12     5     6    1
    13     6     8    1
    14     8     9   ar
    15     9    10   ar
    16    10    11   ar
    17    11    15    1
    18    15    16    1
    19    15    17    1
    20    15    18    1
    21    11    12   ar
    22    12    13   ar
    23    13    14    1
    24     4     7    1
    25    25    26   ar
    26    26    27   ar
    27    27    28   ar
    28    28    29    1
    29    29    30   ar
    30    30    31   ar
    31    31    32   ar
    32    32    33   ar
    33    33    34   ar
    34    28    24   ar
    35    34    29   ar
    36     7     1    1
    37     6     4    1
    38    13     8   ar
@<TRIPOS>MOLECULE
*****
 34 38 0 0 0
SMALL
GASTEIGER

@<TRIPOS>ATOM
      1 N         143.1057  143.7847  163.5645 N.3     1  UNL1       -0.2726
      2 C         142.8186  145.2318  163.2933 C.3     1  UNL1        0.0721
      3 C         141.3920  145.5000  163.6714 C.3     1  UNL1        0.0190
      4 C         140.7975  144.2187  164.1763 C.3     1  UNL1        0.0202
      5 C         139.4357  144.7792  164.4613 C.3     1  UNL1        0.0062
      6 C         139.7229  143.3322  164.7325 C.3     1  UNL1        0.0259
      7 C         141.8567  143.1586  164.1102 C.3     1  UNL1        0.0724
      8 C         139.2683  141.9849  165.2101 C.ar    1  UNL1        0.0050
      9 C         138.2872  141.1928  164.3977 C.ar    1  UNL1       -0.0021
     10 C         137.8326  139.8456  164.8753 C.ar    1  UNL1        0.0037
     11 C         138.3590  139.2904  166.1655 C.ar    1  UNL1        0.0736
     12 C         139.3401  140.0825  166.9780 C.ar    1  UNL1        0.0332
     13 C         139.7947  141.4297  166.5003 C.ar    1  UNL1        0.1361
     14 F         140.7758  142.2217  167.3127 F       1  UNL1       -0.2045
     15 C         137.9044  137.9431  166.6432 C.3     1  UNL1        0.4186
     16 F         137.4498  136.5958  167.1209 F       1  UNL1       -0.1659
     17 F         138.6148  137.2952  165.4918 F       1  UNL1       -0.1659
     18 F         137.1941  138.5910  167.7945 F       1  UNL1       -0.1659
     19 C         144.4126  143.0864  163.3311 C.3     1  UNL1        0.0730
     20 C         144.9355  142.1144  164.3468 C.3     1  UNL1        0.0294
     21 C         145.6276  140.8612  163.8990 C.3     1  UNL1        0.0666
     22 S         144.8977  139.5510  163.9251 S.3     1  UNL1       -0.0756
     23 C         143.5231  140.4007  161.0899 C.3     1  UNL1        0.1340
     24 N         142.8011  139.8927  162.3026 N.ar    1  UNL1       -0.2884
     25 C         143.4329  139.5021  163.6058 C.ar    1  UNL1        0.1932
     26 N         142.3427  139.0541  164.5336 N.ar    1  UNL1       -0.1221
     27 N         141.0372  139.1677  163.8039 N.ar    1  UNL1       -0.1282
     28 C         141.3204  139.6860  162.4250 C.ar    1  UNL1        0.1683
     29 C         140.3018  139.9511  161.3562 C.ar    1  UNL1        0.0551
     30 C         139.7938  141.3447  161.1334 C.ar    1  UNL1        0.0062
     31 C         138.7752  141.6098  160.0646 C.ar    1  UNL1        0.0208
     32 C         138.2647  140.4811  159.2187 C.ar    1  UNL1        0.0989
     33 N         138.7726  139.0874  159.4416 N.ar    1  UNL1       -0.2422
     34 C         139.7912  138.8225  160.5104 C.ar    1  UNL1        0.1019
@<TRIPOS>BOND
     1    23    24    1
     2    24    25   ar
     3    25    22    1
     4    22    21    1
     5    21    20    1
     6    20    19    1
     7    19     1    1
     8     1     2    1
     9     2     3    1
    10     4     3    1
    11     4     5    1
    12     5     6    1
    13     6     8    1
    14     8     9   ar
    15     9    10   ar
    16    10    11   ar
    17    11    15    1
    18    15    16    1
    19    15    17    1
    20    15    18    1
    21    11    12   ar
    22    12    13   ar
    23    13    14    1
    24     4     7    1
    25    25    26   ar
    26    26    27   ar
    27    27    28   ar
    28    28    29    1
    29    29    30   ar
    30    30    31   ar
    31    31    32   ar
    32    32    33   ar
    33    33    34   ar
    34    28    24   ar
    35    34    29   ar
    36     7     1    1
    37     6     4    1
    38    13     8   ar
@<TRIPOS>MOLECULE
*****
 34 38 0 0 0
SMALL
GASTEIGER

@<TRIPOS>ATOM
      1 N         137.9976  141.6326  162.4709 N.3     1  UNL1       -0.2726
      2 C         137.6881  140.5978  161.4301 C.3     1  UNL1        0.0721
      3 C         138.0787  139.2574  161.9787 C.3     1  UNL1        0.0190
      4 C         138.6295  139.4639  163.3585 C.3     1  UNL1        0.0202
      5 C         138.9175  138.0172  163.6305 C.3     1  UNL1        0.0062
      6 C         139.2270  139.0520  164.6713 C.3     1  UNL1        0.0259
      7 C         138.5794  140.9319  163.6627 C.3     1  UNL1        0.0724
      8 C         139.7506  139.4117  166.0301 C.ar    1  UNL1        0.0050
      9 C         141.2059  139.7254  166.2142 C.ar    1  UNL1       -0.0021
     10 C         141.7295  140.0850  167.5731 C.ar    1  UNL1        0.0037
     11 C         140.7979  140.1311  168.7478 C.ar    1  UNL1        0.0736
     12 C         139.3426  139.8175  168.5636 C.ar    1  UNL1        0.0332
     13 C         138.8190  139.4578  167.2048 C.ar    1  UNL1        0.1361
     14 F         137.3638  139.1442  167.0207 F       1  UNL1       -0.2045
     15 C         141.3215  140.4908  170.1066 C.3     1  UNL1        0.4186
     16 F         141.8452  140.8505  171.4655 F       1  UNL1       -0.1659
     17 F         140.5058  139.3877  170.7129 F       1  UNL1       -0.1659
     18 F         142.1373  141.5939  169.5002 F       1  UNL1       -0.1659
     19 C         137.7660  143.1091  162.3425 C.3     1  UNL1        0.0730
     20 C         138.4818  144.0625  163.2526 C.3     1  UNL1        0.0294
     21 C         139.2264  145.2314  162.6787 C.3     1  UNL1        0.0666
     22 S         140.7261  145.2249  162.6507 S.3     1  UNL1       -0.0756
     23 C         141.0641  142.6935  160.6192 C.3     1  UNL1        0.1340
     24 N         141.6313  142.7944  162.0041 N.ar    1  UNL1       -0.2884
     25 C         141.4759  143.9579  162.9379 C.ar    1  UNL1        0.1932
     26 N         142.2021  143.6321  164.2094 N.ar    1  UNL1       -0.1221
     27 N         142.8063  142.2672  164.0613 N.ar    1  UNL1       -0.1282
     28 C         142.4535  141.7494  162.6984 C.ar    1  UNL1        0.1683
     29 C         142.8529  140.4200  162.1297 C.ar    1  UNL1        0.0551
     30 C         142.2164  139.1627  162.6435 C.ar    1  UNL1        0.0062
     31 C         142.6157  137.8334  162.0748 C.ar    1  UNL1        0.0208
     32 C         143.6516  137.7615  160.9923 C.ar    1  UNL1        0.0989
     33 N         144.2881  139.0188  160.4784 N.ar    1  UNL1       -0.2422
     34 C         143.8887  140.3481  161.0472 C.ar    1  UNL1        0.1019
@<TRIPOS>BOND
     1    23    24    1
     2    24    25   ar
     3    25    22    1
     4    22    21    1
     5    21    20    1
     6    20    19    1
     7    19     1    1
     8     1     2    1
     9     2     3    1
    10     4     3    1
    11     4     5    1
    12     5     6    1
    13     6     8    1
    14     8     9   ar
    15     9    10   ar
    16    10    11   ar
    17    11    15    1
    18    15    16    1
    19    15    17    1
    20    15    18    1
    21    11    12   ar
    22    12    13   ar
    23    13    14    1
    24     4     7    1
    25    25    26   ar
    26    26    27   ar
    27    27    28   ar
    28    28    29    1
    29    29    30   ar
    30    30    31   ar
    31    31    32   ar
    32    32    33   ar
    33    33    34   ar
    34    28    24   ar
    35    34    29   ar
    36     7     1    1
    37     6     4    1
    38    13     8   ar
@<TRIPOS>MOLECULE
*****
 34 38 0 0 0
SMALL
GASTEIGER

@<TRIPOS>ATOM
      1 N         143.6831  143.4217  163.6580 N.3     1  UNL1       -0.2726
      2 C         143.5471  144.9013  163.4524 C.3     1  UNL1        0.0721
      3 C         142.1626  145.3017  163.8683 C.3     1  UNL1        0.0190
      4 C         141.4430  144.0696  164.3310 C.3     1  UNL1        0.0202
      5 C         140.1527  144.7577  164.6648 C.3     1  UNL1        0.0062
      6 C         140.2887  143.2781  164.8705 C.3     1  UNL1        0.0259
      7 C         142.3827  142.9077  164.2011 C.3     1  UNL1        0.0724
      8 C         139.7008  141.9669  165.3007 C.ar    1  UNL1        0.0050
      9 C         140.2592  141.2501  166.4942 C.ar    1  UNL1       -0.0021
     10 C         139.6713  139.9389  166.9244 C.ar    1  UNL1        0.0037
     11 C         138.5250  139.3445  166.1611 C.ar    1  UNL1        0.0736
     12 C         137.9665  140.0613  164.9676 C.ar    1  UNL1        0.0332
     13 C         138.5544  141.3725  164.5374 C.ar    1  UNL1        0.1361
     14 F         137.9960  142.0893  163.3440 F       1  UNL1       -0.2045
     15 C         137.9371  138.0333  166.5913 C.3     1  UNL1        0.4186
     16 F         137.3491  136.7220  167.0216 F       1  UNL1       -0.1659
     17 F         138.6147  137.3516  165.4398 F       1  UNL1       -0.1659
     18 F         137.2594  138.7149  167.7428 F       1  UNL1       -0.1659
     19 C         144.9050  142.6003  163.3711 C.3     1  UNL1        0.0730
     20 C         144.9927  141.8043  162.1028 C.3     1  UNL1        0.0294
     21 C         145.2242  142.5007  160.7945 C.3     1  UNL1        0.0666
     22 S         144.0642  142.8177  159.8980 S.3     1  UNL1       -0.0756
     23 C         142.7108  139.8587  160.1473 C.3     1  UNL1        0.1340
     24 N         142.0425  141.1635  160.4649 N.ar    1  UNL1       -0.2884
     25 C         142.6646  142.5236  160.3503 C.ar    1  UNL1        0.1932
     26 N         141.6414  143.5381  160.7675 N.ar    1  UNL1       -0.1221
     27 N         140.3868  142.8049  161.1398 N.ar    1  UNL1       -0.1282
     28 C         140.6347  141.3373  160.9529 C.ar    1  UNL1        0.1683
     29 C         139.6481  140.2369  161.2089 C.ar    1  UNL1        0.0551
     30 C         140.0437  139.0537  162.0417 C.ar    1  UNL1        0.0062
     31 C         139.0570  137.9532  162.2977 C.ar    1  UNL1        0.0208
     32 C         137.6748  138.0360  161.7209 C.ar    1  UNL1        0.0989
     33 N         137.2792  139.2192  160.8881 N.ar    1  UNL1       -0.2422
     34 C         138.2659  140.3197  160.6321 C.ar    1  UNL1        0.1019
@<TRIPOS>BOND
     1    23    24    1
     2    24    25   ar
     3    25    22    1
     4    22    21    1
     5    21    20    1
     6    20    19    1
     7    19     1    1
     8     1     2    1
     9     2     3    1
    10     4     3    1
    11     4     5    1
    12     5     6    1
    13     6     8    1
    14     8     9   ar
    15     9    10   ar
    16    10    11   ar
    17    11    15    1
    18    15    16    1
    19    15    17    1
    20    15    18    1
    21    11    12   ar
    22    12    13   ar
    23    13    14    1
    24     4     7    1
    25    25    26   ar
    26    26    27   ar
    27    27    28   ar
    28    28    29    1
    29    29    30   ar
    30    30    31   ar
    31    31    32   ar
    32    32    33   ar
    33    33    34   ar
    34    28    24   ar
    35    34    29   ar
    36     7     1    1
    37     6     4    1
    38    13     8   ar
@<TRIPOS>MOLECULE
*****
 34 38 0 0 0
SMALL
GASTEIGER

@<TRIPOS>ATOM
      1 N         141.9239  144.1255  161.9530 N.3     1  UNL1       -0.2726
      2 C         141.5552  144.7401  160.6353 C.3     1  UNL1        0.0721
      3 C         140.3377  144.0327  160.1185 C.3     1  UNL1        0.0190
      4 C         139.9539  142.9808  161.1167 C.3     1  UNL1        0.0202
      5 C         138.7646  142.4710  160.3580 C.3     1  UNL1        0.0062
      6 C         139.1334  141.8564  161.6757 C.3     1  UNL1        0.0259
      7 C         140.9343  143.0382  162.2505 C.3     1  UNL1        0.0724
      8 C         138.8726  140.8524  162.7591 C.ar    1  UNL1        0.0050
      9 C         139.2907  139.4238  162.5742 C.ar    1  UNL1       -0.0021
     10 C         139.0299  138.4198  163.6577 C.ar    1  UNL1        0.0037
     11 C         138.3509  138.8444  164.9261 C.ar    1  UNL1        0.0736
     12 C         137.9328  140.2731  165.1109 C.ar    1  UNL1        0.0332
     13 C         138.1936  141.2771  164.0275 C.ar    1  UNL1        0.1361
     14 F         137.7756  142.7056  164.2123 F       1  UNL1       -0.2045
     15 C         138.0901  137.8404  166.0095 C.3     1  UNL1        0.4186
     16 F         137.8293  136.8364  167.0931 F       1  UNL1       -0.1659
     17 F         138.9282  136.8338  165.2785 F       1  UNL1       -0.1659
     18 F         137.2520  138.8470  166.7405 F       1  UNL1       -0.1659
     19 C         143.0795  144.5275  162.8208 C.3     1  UNL1        0.0730
     20 C         144.4593  144.0270  162.5118 C.3     1  UNL1        0.0294
     21 C         144.7025  142.5571  162.3373 C.3     1  UNL1        0.0666
     22 S         145.3549  141.7695  163.4345 S.3     1  UNL1       -0.0756
     23 C         143.7166  142.8027  166.0610 C.3     1  UNL1        0.1340
     24 N         143.7673  141.3926  165.5518 N.ar    1  UNL1       -0.2884
     25 C         144.5204  140.9177  164.3446 C.ar    1  UNL1        0.1932
     26 N         144.2924  139.4415  164.2071 N.ar    1  UNL1       -0.1221
     27 N         143.3984  139.0041  165.3293 N.ar    1  UNL1       -0.1282
     28 C         143.0739  140.2099  166.1604 C.ar    1  UNL1        0.1683
     29 C         142.2080  140.2295  167.3851 C.ar    1  UNL1        0.0551
     30 C         140.7269  140.0277  167.2598 C.ar    1  UNL1        0.0062
     31 C         139.8610  140.0474  168.4845 C.ar    1  UNL1        0.0208
     32 C         140.4763  140.2689  169.8345 C.ar    1  UNL1        0.0989
     33 N         141.9574  140.4707  169.9598 N.ar    1  UNL1       -0.2422
     34 C         142.8232  140.4510  168.7351 C.ar    1  UNL1        0.1019
@<TRIPOS>BOND
     1    23    24    1
     2    24    25   ar
     3    25    22    1
     4    22    21    1
     5    21    20    1
     6    20    19    1
     7    19     1    1
     8     1     2    1
     9     2     3    1
    10     4     3    1
    11     4     5    1
    12     5     6    1
    13     6     8    1
    14     8     9   ar
    15     9    10   ar
    16    10    11   ar
    17    11    15    1
    18    15    16    1
    19    15    17    1
    20    15    18    1
    21    11    12   ar
    22    12    13   ar
    23    13    14    1
    24     4     7    1
    25    25    26   ar
    26    26    27   ar
    27    27    28   ar
    28    28    29    1
    29    29    30   ar
    30    30    31   ar
    31    31    32   ar
    32    32    33   ar
    33    33    34   ar
    34    28    24   ar
    35    34    29   ar
    36     7     1    1
    37     6     4    1
    38    13     8   ar
@<TRIPOS>MOLECULE
*****
 34 38 0 0 0
SMALL
GASTEIGER

@<TRIPOS>ATOM
      1 N         138.1671  141.1269  163.3282 N.3     1  UNL1       -0.2726
      2 C         137.5906  142.4021  162.7884 C.3     1  UNL1        0.0721
      3 C         138.0060  143.5201  163.6981 C.3     1  UNL1        0.0190
      4 C         138.8393  142.9359  164.8000 C.3     1  UNL1        0.0202
      5 C         139.0915  144.2327  165.5104 C.3     1  UNL1        0.0062
      6 C         139.6681  142.9575  166.0501 C.3     1  UNL1        0.0259
      7 C         138.9389  141.4567  164.5714 C.3     1  UNL1        0.0724
      8 C         140.4794  142.2337  167.0835 C.ar    1  UNL1        0.0050
      9 C         141.1659  140.9471  166.7320 C.ar    1  UNL1       -0.0021
     10 C         141.9772  140.2233  167.7653 C.ar    1  UNL1        0.0037
     11 C         142.1021  140.7861  169.1501 C.ar    1  UNL1        0.0736
     12 C         141.4157  142.0727  169.5016 C.ar    1  UNL1        0.0332
     13 C         140.6043  142.7965  168.4682 C.ar    1  UNL1        0.1361
     14 F         139.9179  144.0830  168.8197 F       1  UNL1       -0.2045
     15 C         142.9135  140.0623  170.1835 C.3     1  UNL1        0.4186
     16 F         143.7249  139.3385  171.2168 F       1  UNL1       -0.1659
     17 F         141.9503  138.9134  170.1350 F       1  UNL1       -0.1659
     18 F         143.8767  141.2111  170.2319 F       1  UNL1       -0.1659
     19 C         138.0011  139.7615  162.7298 C.3     1  UNL1        0.0730
     20 C         137.4331  139.6115  161.3496 C.3     1  UNL1        0.0294
     21 C         138.3448  139.3482  160.1878 C.3     1  UNL1        0.0666
     22 S         138.6657  140.4497  159.2216 S.3     1  UNL1       -0.0756
     23 C         141.2202  140.7466  161.2306 C.3     1  UNL1        0.1340
     24 N         140.4243  141.8744  160.6437 N.ar    1  UNL1       -0.2884
     25 C         139.2501  141.7380  159.7203 C.ar    1  UNL1        0.1932
     26 N         138.7630  143.1160  159.3830 N.ar    1  UNL1       -0.1221
     27 N         139.6361  144.1042  160.0980 N.ar    1  UNL1       -0.1282
     28 C         140.6629  143.3369  160.8772 C.ar    1  UNL1        0.1683
     29 C         141.7392  143.9282  161.7385 C.ar    1  UNL1        0.0551
     30 C         141.3740  144.8109  162.8950 C.ar    1  UNL1        0.0062
     31 C         142.4504  145.4022  163.7563 C.ar    1  UNL1        0.0208
     32 C         143.8919  145.1107  163.4611 C.ar    1  UNL1        0.0989
     33 N         144.2571  144.2279  162.3047 N.ar    1  UNL1       -0.2422
     34 C         143.1807  143.6367  161.4434 C.ar    1  UNL1        0.1019
@<TRIPOS>BOND
     1    23    24    1
     2    24    25   ar
     3    25    22    1
     4    22    21    1
     5    21    20    1
     6    20    19    1
     7    19     1    1
     8     1     2    1
     9     2     3    1
    10     4     3    1
    11     4     5    1
    12     5     6    1
    13     6     8    1
    14     8     9   ar
    15     9    10   ar
    16    10    11   ar
    17    11    15    1
    18    15    16    1
    19    15    17    1
    20    15    18    1
    21    11    12   ar
    22    12    13   ar
    23    13    14    1
    24     4     7    1
    25    25    26   ar
    26    26    27   ar
    27    27    28   ar
    28    28    29    1
    29    29    30   ar
    30    30    31   ar
    31    31    32   ar
    32    32    33   ar
    33    33    34   ar
    34    28    24   ar
    35    34    29   ar
    36     7     1    1
    37     6     4    1
    38    13     8   ar
@<TRIPOS>MOLECULE
*****
 34 38 0 0 0
SMALL
GASTEIGER

@<TRIPOS>ATOM
      1 N         141.4110  144.5314  163.2042 N.3     1  UNL1       -0.2726
      2 C         142.6924  144.7514  162.4562 C.3     1  UNL1        0.0721
      3 C         143.7808  144.0085  163.1729 C.3     1  UNL1        0.0190
      4 C         143.1720  143.3294  164.3637 C.3     1  UNL1        0.0202
      5 C         144.4432  142.7010  164.8527 C.3     1  UNL1        0.0062
      6 C         143.1617  142.4810  165.6007 C.3     1  UNL1        0.0259
      7 C         141.7073  143.6526  164.3831 C.3     1  UNL1        0.0724
      8 C         142.4160  141.8642  166.7467 C.ar    1  UNL1        0.0050
      9 C         141.5079  142.7078  167.5915 C.ar    1  UNL1       -0.0021
     10 C         140.7621  142.0910  168.7376 C.ar    1  UNL1        0.0037
     11 C         140.9244  140.6306  169.0388 C.ar    1  UNL1        0.0736
     12 C         141.8325  139.7869  168.1940 C.ar    1  UNL1        0.0332
     13 C         142.5783  140.4037  167.0479 C.ar    1  UNL1        0.1361
     14 F         143.4863  139.5602  166.2032 F       1  UNL1       -0.2045
     15 C         140.1787  140.0138  170.1848 C.3     1  UNL1        0.4186
     16 F         139.4329  139.3969  171.3308 F       1  UNL1       -0.1659
     17 F         139.0715  141.0087  169.9998 F       1  UNL1       -0.1659
     18 F         141.2858  139.0188  170.3697 F       1  UNL1       -0.1659
     19 C         140.0687  145.0919  162.8377 C.3     1  UNL1        0.0730
     20 C         138.8601  144.7375  163.6524 C.3     1  UNL1        0.0294
     21 C         137.7828  143.8774  163.0611 C.3     1  UNL1        0.0666
     22 S         137.4912  142.5294  163.6508 S.3     1  UNL1       -0.0756
     23 C         139.6516  141.6516  161.3679 C.3     1  UNL1        0.1340
     24 N         139.5899  141.1267  162.7717 N.ar    1  UNL1       -0.2884
     25 C         138.5969  141.5302  163.8210 C.ar    1  UNL1        0.1932
     26 N         138.9037  140.7590  165.0705 N.ar    1  UNL1       -0.1221
     27 N         140.0863  139.8789  164.7934 N.ar    1  UNL1       -0.1282
     28 C         140.5105  140.1061  163.3726 C.ar    1  UNL1        0.1683
     29 C         141.6544  139.4313  162.6753 C.ar    1  UNL1        0.0551
     30 C         143.0521  139.9437  162.8590 C.ar    1  UNL1        0.0062
     31 C         144.1960  139.2688  162.1616 C.ar    1  UNL1        0.0208
     32 C         143.9419  138.0816  161.2806 C.ar    1  UNL1        0.0989
     33 N         142.5442  137.5692  161.0970 N.ar    1  UNL1       -0.2422
     34 C         141.4003  138.2441  161.7944 C.ar    1  UNL1        0.1019
@<TRIPOS>BOND
     1    23    24    1
     2    24    25   ar
     3    25    22    1
     4    22    21    1
     5    21    20    1
     6    20    19    1
     7    19     1    1
     8     1     2    1
     9     2     3    1
    10     4     3    1
    11     4     5    1
    12     5     6    1
    13     6     8    1
    14     8     9   ar
    15     9    10   ar
    16    10    11   ar
    17    11    15    1
    18    15    16    1
    19    15    17    1
    20    15    18    1
    21    11    12   ar
    22    12    13   ar
    23    13    14    1
    24     4     7    1
    25    25    26   ar
    26    26    27   ar
    27    27    28   ar
    28    28    29    1
    29    29    30   ar
    30    30    31   ar
    31    31    32   ar
    32    32    33   ar
    33    33    34   ar
    34    28    24   ar
    35    34    29   ar
    36     7     1    1
    37     6     4    1
    38    13     8   ar
@<TRIPOS>MOLECULE
*****
 34 38 0 0 0
SMALL
GASTEIGER

@<TRIPOS>ATOM
      1 N         141.4992  141.6781  161.1524 N.3     1  UNL1       -0.2726
      2 C         141.8350  140.5005  160.2861 C.3     1  UNL1        0.0721
      3 C         142.4969  139.4657  161.1470 C.3     1  UNL1        0.0190
      4 C         142.5700  140.0037  162.5453 C.3     1  UNL1        0.0202
      5 C         143.2461  138.8039  163.1398 C.3     1  UNL1        0.0062
      6 C         142.9102  139.9815  164.0061 C.3     1  UNL1        0.0259
      7 C         141.9534  141.3711  162.5486 C.3     1  UNL1        0.0724
      8 C         142.9127  140.6487  165.3495 C.ar    1  UNL1        0.0050
      9 C         143.4729  142.0321  165.4989 C.ar    1  UNL1       -0.0021
     10 C         143.4754  142.6992  166.8424 C.ar    1  UNL1        0.0037
     11 C         142.9177  141.9829  168.0365 C.ar    1  UNL1        0.0736
     12 C         142.3574  140.5994  167.8871 C.ar    1  UNL1        0.0332
     13 C         142.3550  139.9323  166.5436 C.ar    1  UNL1        0.1361
     14 F         141.7948  138.5490  166.3942 F       1  UNL1       -0.2045
     15 C         142.9201  142.6500  169.3799 C.3     1  UNL1        0.4186
     16 F         142.9227  143.3171  170.7235 F       1  UNL1       -0.1659
     17 F         141.4587  142.9536  169.2318 F       1  UNL1       -0.1659
     18 F         144.3816  142.3463  169.5280 F       1  UNL1       -0.1659
     19 C         140.8270  142.9411  160.7016 C.3     1  UNL1        0.0730
     20 C         140.9667  144.1955  161.5121 C.3     1  UNL1        0.0294
     21 C         139.7842  145.0973  161.7083 C.3     1  UNL1        0.0666
     22 S         138.8873  144.9105  162.8959 S.3     1  UNL1       -0.0756
     23 C         137.8425  141.8359  162.5722 C.3     1  UNL1        0.1340
     24 N         138.6601  142.3742  163.7087 N.ar    1  UNL1       -0.2884
     25 C         139.1404  143.7874  163.8575 C.ar    1  UNL1        0.1932
     26 N         139.9182  143.8805  165.1367 N.ar    1  UNL1       -0.1221
     27 N         139.9187  142.5248  165.7786 N.ar    1  UNL1       -0.1282
     28 C         139.1411  141.5938  164.8961 C.ar    1  UNL1        0.1683
     29 C         138.8889  140.1380  165.1553 C.ar    1  UNL1        0.0551
     30 C         139.4087  139.1050  164.2000 C.ar    1  UNL1        0.0062
     31 C         139.1565  137.6493  164.4592 C.ar    1  UNL1        0.0208
     32 C         138.3845  137.2266  165.6739 C.ar    1  UNL1        0.0989
     33 N         137.8647  138.2596  166.6293 N.ar    1  UNL1       -0.2422
     34 C         138.1169  139.7154  166.3699 C.ar    1  UNL1        0.1019
@<TRIPOS>BOND
     1    23    24    1
     2    24    25   ar
     3    25    22    1
     4    22    21    1
     5    21    20    1
     6    20    19    1
     7    19     1    1
     8     1     2    1
     9     2     3    1
    10     4     3    1
    11     4     5    1
    12     5     6    1
    13     6     8    1
    14     8     9   ar
    15     9    10   ar
    16    10    11   ar
    17    11    15    1
    18    15    16    1
    19    15    17    1
    20    15    18    1
    21    11    12   ar
    22    12    13   ar
    23    13    14    1
    24     4     7    1
    25    25    26   ar
    26    26    27   ar
    27    27    28   ar
    28    28    29    1
    29    29    30   ar
    30    30    31   ar
    31    31    32   ar
    32    32    33   ar
    33    33    34   ar
    34    28    24   ar
    35    34    29   ar
    36     7     1    1
    37     6     4    1
    38    13     8   ar
