@<TRIPOS>MOLECULE
*****
 35 38 0 0 0
SMALL
GASTEIGER

@<TRIPOS>ATOM
      1 C         138.2195  141.2709  161.7133 C.ar    1  UNL1        0.1417
      2 C         138.1747  140.3785  162.9180 C.ar    1  UNL1        0.0743
      3 C         138.7963  139.0144  162.8645 C.ar    1  UNL1        0.1485
      4 C         139.4628  138.5427  161.6062 C.ar    1  UNL1        0.0422
      5 C         139.5076  139.4352  160.4014 C.ar    1  UNL1        0.0597
      6 C         138.8859  140.7992  160.4550 C.ar    1  UNL1        0.0416
      7 C         140.1740  138.9635  159.1431 C.2     1  UNL1        0.2508
      8 O         139.3507  138.3914  158.0274 O.2     1  UNL1       -0.2698
      9 N         141.6638  139.0640  159.0004 N.am    1  UNL1       -0.2644
     10 H         142.2042  139.4395  159.7326 H       1  UNL1        0.1566
     11 C         142.3303  138.5924  157.7420 C.ar    1  UNL1        0.1557
     12 C         142.5101  139.3930  156.4863 C.ar    1  UNL1        0.0564
     13 C         143.2249  138.5328  155.4866 C.ar    1  UNL1        0.0981
     14 N         143.4868  137.2007  156.1246 N.ar    1  UNL1       -0.2462
     15 C         144.1799  136.0362  155.4815 C.3     1  UNL1        0.1538
     16 N         142.9339  137.2375  157.5185 N.ar    1  UNL1       -0.1539
     17 O         137.5978  142.6350  161.7668 O.3     1  UNL1       -0.4765
     18 C         138.2071  143.7037  162.6250 C.3     1  UNL1        0.1954
     19 C         137.6806  143.9454  164.0086 C.3     1  UNL1        0.0500
     20 C         139.3429  144.5307  162.0996 C.3     1  UNL1        0.1855
     21 C         141.3760  144.8871  163.6776 C.3     1  UNL1        0.1743
     22 O         140.7529  144.2060  162.4952 O.3     1  UNL1       -0.3473
     23 O         138.7515  138.1219  164.0694 O.3     1  UNL1       -0.4534
     24 C         138.9446  138.7013  165.4394 C.ar    1  UNL1        0.1453
     25 C         137.8552  138.5836  166.4639 C.ar    1  UNL1        0.0376
     26 C         138.0483  139.1630  167.8339 C.ar    1  UNL1        0.0076
     27 C         139.3308  139.8601  168.1795 C.ar    1  UNL1        0.0538
     28 C         140.4201  139.9778  167.1551 C.ar    1  UNL1        0.0076
     29 C         140.2270  139.3984  165.7850 C.ar    1  UNL1        0.0376
     30 C         139.5239  140.4395  169.5496 C.2     1  UNL1        0.2490
     31 O         139.2603  139.5987  170.7634 O.2     1  UNL1       -0.2699
     32 N         139.9806  141.8598  169.7057 N.am    1  UNL1       -0.2760
     33 C         140.3323  142.9708  168.7613 C.3     1  UNL1        0.0955
     34 C         140.6264  143.8683  169.9266 C.3     1  UNL1        0.0430
     35 C         140.2747  142.7572  170.8710 C.3     1  UNL1        0.0955
@<TRIPOS>BOND
     1    21    22    1
     2    22    20    1
     3    20    18    1
     4    18    19    1
     5    18    17    1
     6    17     1    1
     7     1     2   ar
     8     2     3   ar
     9     3    23    1
    10    23    24    1
    11    24    25   ar
    12    25    26   ar
    13    26    27   ar
    14    27    30    1
    15    30    31    2
    16    30    32   am
    17    32    33    1
    18    33    34    1
    19    34    35    1
    20    27    28   ar
    21    28    29   ar
    22     3     4   ar
    23     4     5   ar
    24     5     7    1
    25     7     8    2
    26     7     9   am
    27     9    11    1
    28    11    12   ar
    29    12    13   ar
    30    13    14   ar
    31    14    15    1
    32    14    16   ar
    33     5     6   ar
    34     6     1   ar
    35    29    24   ar
    36    16    11   ar
    37    35    32    1
    38     9    10    1
@<TRIPOS>MOLECULE
*****
 35 38 0 0 0
SMALL
GASTEIGER

@<TRIPOS>ATOM
      1 C         138.0282  141.9247  161.7995 C.ar    1  UNL1        0.1417
      2 C         138.1288  140.9342  162.9214 C.ar    1  UNL1        0.0743
      3 C         138.4506  139.4988  162.6281 C.ar    1  UNL1        0.1485
      4 C         138.6717  139.0538  161.2129 C.ar    1  UNL1        0.0422
      5 C         138.5710  140.0442  160.0909 C.ar    1  UNL1        0.0597
      6 C         138.2493  141.4797  160.3842 C.ar    1  UNL1        0.0416
      7 C         138.7921  139.5993  158.6755 C.2     1  UNL1        0.2508
      8 O         138.0625  140.2768  157.5537 O.2     1  UNL1       -0.2698
      9 N         139.7428  138.4768  158.3821 N.am    1  UNL1       -0.2644
     10 H         140.2217  138.0320  159.1184 H       1  UNL1        0.1566
     11 C         139.9639  138.0318  156.9667 C.ar    1  UNL1        0.1557
     12 C         141.2934  137.8654  156.2924 C.ar    1  UNL1        0.0564
     13 C         141.0456  137.4058  154.8861 C.ar    1  UNL1        0.0981
     14 N         139.5629  137.2883  154.6914 N.ar    1  UNL1       -0.2462
     15 C         138.8703  136.8592  153.4321 C.3     1  UNL1        0.1538
     16 N         138.8944  137.6751  155.9773 N.ar    1  UNL1       -0.1539
     17 O         137.7064  143.3601  162.0928 O.3     1  UNL1       -0.4765
     18 C         138.4834  144.1044  163.1379 C.3     1  UNL1        0.1954
     19 C         137.9102  144.2845  164.5123 C.3     1  UNL1        0.0500
     20 C         139.8337  144.6688  162.8086 C.3     1  UNL1        0.1855
     21 C         140.2616  145.4552  160.3696 C.3     1  UNL1        0.1743
     22 O         139.9593  145.7752  161.8036 O.3     1  UNL1       -0.3473
     23 O         138.5512  138.5083  163.7502 O.3     1  UNL1       -0.4534
     24 C         138.9793  138.9616  165.1145 C.ar    1  UNL1        0.1453
     25 C         140.3941  139.4015  165.3489 C.ar    1  UNL1        0.0376
     26 C         140.8223  139.8547  166.7132 C.ar    1  UNL1        0.0076
     27 C         139.8356  139.8680  167.8431 C.ar    1  UNL1        0.0538
     28 C         138.4209  139.4281  167.6086 C.ar    1  UNL1        0.0076
     29 C         137.9928  138.9749  166.2443 C.ar    1  UNL1        0.0376
     30 C         140.2638  140.3213  169.2073 C.2     1  UNL1        0.2490
     31 O         140.5175  139.3120  170.2876 O.2     1  UNL1       -0.2699
     32 N         140.4382  141.7838  169.4913 N.am    1  UNL1       -0.2760
     33 C         140.2832  143.0450  168.6942 C.3     1  UNL1        0.0955
     34 C         140.6849  143.8521  169.8930 C.3     1  UNL1        0.0430
     35 C         140.8400  142.5910  170.6901 C.3     1  UNL1        0.0955
@<TRIPOS>BOND
     1    21    22    1
     2    22    20    1
     3    20    18    1
     4    18    19    1
     5    18    17    1
     6    17     1    1
     7     1     2   ar
     8     2     3   ar
     9     3    23    1
    10    23    24    1
    11    24    25   ar
    12    25    26   ar
    13    26    27   ar
    14    27    30    1
    15    30    31    2
    16    30    32   am
    17    32    33    1
    18    33    34    1
    19    34    35    1
    20    27    28   ar
    21    28    29   ar
    22     3     4   ar
    23     4     5   ar
    24     5     7    1
    25     7     8    2
    26     7     9   am
    27     9    11    1
    28    11    12   ar
    29    12    13   ar
    30    13    14   ar
    31    14    15    1
    32    14    16   ar
    33     5     6   ar
    34     6     1   ar
    35    29    24   ar
    36    16    11   ar
    37    35    32    1
    38     9    10    1
@<TRIPOS>MOLECULE
*****
 35 38 0 0 0
SMALL
GASTEIGER

@<TRIPOS>ATOM
      1 C         144.2284  141.3620  162.3360 C.ar    1  UNL1        0.1417
      2 C         143.8773  140.4604  163.4822 C.ar    1  UNL1        0.0743
      3 C         143.3275  139.0901  163.2176 C.ar    1  UNL1        0.1485
      4 C         143.1288  138.6214  161.8067 C.ar    1  UNL1        0.0422
      5 C         143.4798  139.5229  160.6604 C.ar    1  UNL1        0.0597
      6 C         144.0296  140.8932  160.9251 C.ar    1  UNL1        0.0416
      7 C         143.2811  139.0541  159.2494 C.2     1  UNL1        0.2508
      8 O         143.9516  139.7755  158.1180 O.2     1  UNL1       -0.2698
      9 N         142.4119  137.8640  158.9699 N.am    1  UNL1       -0.2644
     10 H         141.9719  137.3906  159.7125 H       1  UNL1        0.1566
     11 C         142.2132  137.3953  157.5589 C.ar    1  UNL1        0.1557
     12 C         143.0744  136.4080  156.8284 C.ar    1  UNL1        0.0564
     13 C         142.5118  136.2340  155.4487 C.ar    1  UNL1        0.0981
     14 N         141.3030  137.1138  155.3267 N.ar    1  UNL1       -0.2462
     15 C         140.4318  137.2517  154.1135 C.3     1  UNL1        0.1538
     16 N         141.1185  137.8315  156.6308 N.ar    1  UNL1       -0.1539
     17 O         144.7781  142.7323  162.6006 O.3     1  UNL1       -0.4765
     18 C         143.8730  143.8206  163.0968 C.3     1  UNL1        0.1954
     19 C         142.8040  144.3735  162.2015 C.3     1  UNL1        0.0500
     20 C         144.0369  144.3560  164.4884 C.3     1  UNL1        0.1855
     21 C         143.4998  142.5941  166.3207 C.3     1  UNL1        0.1743
     22 O         144.4940  143.4489  165.5921 O.3     1  UNL1       -0.3473
     23 O         142.9765  138.1886  164.3640 O.3     1  UNL1       -0.4534
     24 C         142.3284  138.7551  165.5924 C.ar    1  UNL1        0.1453
     25 C         143.1037  138.8511  166.8730 C.ar    1  UNL1        0.0376
     26 C         142.4557  139.4176  168.1014 C.ar    1  UNL1        0.0076
     27 C         141.0323  139.8882  168.0493 C.ar    1  UNL1        0.0538
     28 C         140.2571  139.7923  166.7688 C.ar    1  UNL1        0.0076
     29 C         140.9051  139.2257  165.5404 C.ar    1  UNL1        0.0376
     30 C         140.3843  140.4547  169.2777 C.2     1  UNL1        0.2490
     31 O         139.7511  139.5382  170.2822 O.2     1  UNL1       -0.2699
     32 N         140.3694  141.9379  169.5017 N.am    1  UNL1       -0.2760
     33 C         140.8820  143.1296  168.7485 C.3     1  UNL1        0.0955
     34 C         140.3484  144.0353  169.8185 C.3     1  UNL1        0.0430
     35 C         139.8358  142.8437  170.5717 C.3     1  UNL1        0.0955
@<TRIPOS>BOND
     1    21    22    1
     2    22    20    1
     3    20    18    1
     4    18    19    1
     5    18    17    1
     6    17     1    1
     7     1     2   ar
     8     2     3   ar
     9     3    23    1
    10    23    24    1
    11    24    25   ar
    12    25    26   ar
    13    26    27   ar
    14    27    30    1
    15    30    31    2
    16    30    32   am
    17    32    33    1
    18    33    34    1
    19    34    35    1
    20    27    28   ar
    21    28    29   ar
    22     3     4   ar
    23     4     5   ar
    24     5     7    1
    25     7     8    2
    26     7     9   am
    27     9    11    1
    28    11    12   ar
    29    12    13   ar
    30    13    14   ar
    31    14    15    1
    32    14    16   ar
    33     5     6   ar
    34     6     1   ar
    35    29    24   ar
    36    16    11   ar
    37    35    32    1
    38     9    10    1
@<TRIPOS>MOLECULE
*****
 35 38 0 0 0
SMALL
GASTEIGER

@<TRIPOS>ATOM
      1 C         140.5883  141.2368  161.7386 C.ar    1  UNL1        0.1417
      2 C         140.3454  140.3801  162.9456 C.ar    1  UNL1        0.0743
      3 C         140.3408  138.8857  162.8161 C.ar    1  UNL1        0.1485
      4 C         140.5790  138.2480  161.4794 C.ar    1  UNL1        0.0422
      5 C         140.8219  139.1048  160.2724 C.ar    1  UNL1        0.0597
      6 C         140.8265  140.5991  160.4020 C.ar    1  UNL1        0.0416
      7 C         141.0601  138.4671  158.9357 C.2     1  UNL1        0.2508
      8 O         139.8975  138.1010  158.0615 O.2     1  UNL1       -0.2698
      9 N         142.4609  138.1957  158.4732 N.am    1  UNL1       -0.2644
     10 H         143.2240  138.4360  159.0469 H       1  UNL1        0.1566
     11 C         142.6992  137.5580  157.1365 C.ar    1  UNL1        0.1557
     12 C         143.1903  138.2549  155.9023 C.ar    1  UNL1        0.0564
     13 C         143.2828  137.2392  154.8023 C.ar    1  UNL1        0.0981
     14 N         142.8488  135.9146  155.3568 N.ar    1  UNL1       -0.2462
     15 C         142.7865  134.6204  154.6013 C.3     1  UNL1        0.1538
     16 N         142.4881  136.1118  156.7993 N.ar    1  UNL1       -0.1539
     17 O         140.5929  142.7312  161.8682 O.3     1  UNL1       -0.4765
     18 C         139.2966  143.4794  161.9674 C.3     1  UNL1        0.1954
     19 C         138.0152  142.8176  161.5552 C.3     1  UNL1        0.0500
     20 C         139.2818  144.8895  162.4789 C.3     1  UNL1        0.1855
     21 C         138.9215  144.7179  165.0462 C.3     1  UNL1        0.1743
     22 O         139.7373  145.1849  163.8772 O.3     1  UNL1       -0.3473
     23 O         140.0980  138.0289  164.0232 O.3     1  UNL1       -0.4534
     24 C         139.9527  138.6620  165.3753 C.ar    1  UNL1        0.1453
     25 C         141.1571  139.2158  166.0774 C.ar    1  UNL1        0.0376
     26 C         141.0118  139.8489  167.4295 C.ar    1  UNL1        0.0076
     27 C         139.6622  139.9282  168.0794 C.ar    1  UNL1        0.0538
     28 C         138.4579  139.3745  167.3772 C.ar    1  UNL1        0.0076
     29 C         138.6032  138.7414  166.0251 C.ar    1  UNL1        0.0376
     30 C         139.5169  140.5613  169.4314 C.2     1  UNL1        0.2490
     31 O         138.9844  139.7594  170.5818 O.2     1  UNL1       -0.2699
     32 N         139.9041  141.9964  169.6331 N.am    1  UNL1       -0.2760
     33 C         140.4547  143.0801  168.7542 C.3     1  UNL1        0.0955
     34 C         140.4518  144.0259  169.9184 C.3     1  UNL1        0.0430
     35 C         139.9012  142.9422  170.7974 C.3     1  UNL1        0.0955
@<TRIPOS>BOND
     1    21    22    1
     2    22    20    1
     3    20    18    1
     4    18    19    1
     5    18    17    1
     6    17     1    1
     7     1     2   ar
     8     2     3   ar
     9     3    23    1
    10    23    24    1
    11    24    25   ar
    12    25    26   ar
    13    26    27   ar
    14    27    30    1
    15    30    31    2
    16    30    32   am
    17    32    33    1
    18    33    34    1
    19    34    35    1
    20    27    28   ar
    21    28    29   ar
    22     3     4   ar
    23     4     5   ar
    24     5     7    1
    25     7     8    2
    26     7     9   am
    27     9    11    1
    28    11    12   ar
    29    12    13   ar
    30    13    14   ar
    31    14    15    1
    32    14    16   ar
    33     5     6   ar
    34     6     1   ar
    35    29    24   ar
    36    16    11   ar
    37    35    32    1
    38     9    10    1
@<TRIPOS>MOLECULE
*****
 35 38 0 0 0
SMALL
GASTEIGER

@<TRIPOS>ATOM
      1 C         139.1474  141.0578  161.4960 C.ar    1  UNL1        0.1417
      2 C         139.2100  140.2093  162.7314 C.ar    1  UNL1        0.0743
      3 C         139.7345  138.8063  162.6518 C.ar    1  UNL1        0.1485
      4 C         140.1963  138.2517  161.3369 C.ar    1  UNL1        0.0422
      5 C         140.1337  139.1002  160.1015 C.ar    1  UNL1        0.0597
      6 C         139.6093  140.5032  160.1811 C.ar    1  UNL1        0.0416
      7 C         140.5956  138.5456  158.7865 C.2     1  UNL1        0.2508
      8 O         139.6485  138.4822  157.6251 O.2     1  UNL1       -0.2698
      9 N         142.0046  138.0544  158.6330 N.am    1  UNL1       -0.2644
     10 H         142.6262  138.0960  159.3953 H       1  UNL1        0.1566
     11 C         142.4665  137.4999  157.3180 C.ar    1  UNL1        0.1557
     12 C         143.1596  138.2680  156.2319 C.ar    1  UNL1        0.0564
     13 C         143.4379  137.3227  155.1009 C.ar    1  UNL1        0.0981
     14 N         142.9167  135.9704  155.4881 N.ar    1  UNL1       -0.2462
     15 C         142.9840  134.7271  154.6519 C.3     1  UNL1        0.1538
     16 N         142.3163  136.0800  156.8583 N.ar    1  UNL1       -0.1539
     17 O         138.6229  142.4609  161.5756 O.3     1  UNL1       -0.4765
     18 C         139.4939  143.5579  162.1120 C.3     1  UNL1        0.1954
     19 C         140.3171  144.3890  161.1731 C.3     1  UNL1        0.0500
     20 C         139.5419  143.8238  163.5876 C.3     1  UNL1        0.1855
     21 C         138.5499  144.9616  165.7022 C.3     1  UNL1        0.1743
     22 O         138.5025  144.6964  164.2265 O.3     1  UNL1       -0.3473
     23 O         139.7970  137.9578  163.8872 O.3     1  UNL1       -0.4534
     24 C         139.6858  138.5946  165.2408 C.ar    1  UNL1        0.1453
     25 C         138.3734  138.5879  165.9672 C.ar    1  UNL1        0.0376
     26 C         138.2622  139.2247  167.3208 C.ar    1  UNL1        0.0076
     27 C         139.4634  139.8681  167.9479 C.ar    1  UNL1        0.0538
     28 C         140.7757  139.8747  167.2215 C.ar    1  UNL1        0.0076
     29 C         140.8869  139.2379  165.8680 C.ar    1  UNL1        0.0376
     30 C         139.3521  140.5049  169.3015 C.2     1  UNL1        0.2490
     31 O         138.7466  139.7416  170.4420 O.2     1  UNL1       -0.2699
     32 N         139.8465  141.9050  169.5146 N.am    1  UNL1       -0.2760
     33 C         140.4886  142.9467  168.6471 C.3     1  UNL1        0.0955
     34 C         140.5455  143.8850  169.8160 C.3     1  UNL1        0.0430
     35 C         139.9034  142.8433  170.6835 C.3     1  UNL1        0.0955
@<TRIPOS>BOND
     1    21    22    1
     2    22    20    1
     3    20    18    1
     4    18    19    1
     5    18    17    1
     6    17     1    1
     7     1     2   ar
     8     2     3   ar
     9     3    23    1
    10    23    24    1
    11    24    25   ar
    12    25    26   ar
    13    26    27   ar
    14    27    30    1
    15    30    31    2
    16    30    32   am
    17    32    33    1
    18    33    34    1
    19    34    35    1
    20    27    28   ar
    21    28    29   ar
    22     3     4   ar
    23     4     5   ar
    24     5     7    1
    25     7     8    2
    26     7     9   am
    27     9    11    1
    28    11    12   ar
    29    12    13   ar
    30    13    14   ar
    31    14    15    1
    32    14    16   ar
    33     5     6   ar
    34     6     1   ar
    35    29    24   ar
    36    16    11   ar
    37    35    32    1
    38     9    10    1
@<TRIPOS>MOLECULE
*****
 35 38 0 0 0
SMALL
GASTEIGER

@<TRIPOS>ATOM
      1 C         142.7914  143.0205  159.9935 C.ar    1  UNL1        0.1417
      2 C         142.3191  141.7700  160.6741 C.ar    1  UNL1        0.0743
      3 C         142.8586  140.4360  160.2504 C.ar    1  UNL1        0.1485
      4 C         143.8703  140.3525  159.1462 C.ar    1  UNL1        0.0422
      5 C         144.3425  141.6030  158.4656 C.ar    1  UNL1        0.0597
      6 C         143.8031  142.9370  158.8893 C.ar    1  UNL1        0.0416
      7 C         145.3543  141.5195  157.3613 C.2     1  UNL1        0.2508
      8 O         145.3801  140.3233  156.4566 O.2     1  UNL1       -0.2698
      9 N         146.3401  142.6322  157.1616 N.am    1  UNL1       -0.2644
     10 H         146.3232  143.4173  157.7554 H       1  UNL1        0.1566
     11 C         147.3519  142.5488  156.0573 C.ar    1  UNL1        0.1557
     12 C         147.1829  143.0802  154.6648 C.ar    1  UNL1        0.0564
     13 C         148.4368  142.7791  153.8985 C.ar    1  UNL1        0.0981
     14 N         149.3807  142.0616  154.8174 N.ar    1  UNL1       -0.2462
     15 C         150.7539  141.5724  154.4642 C.3     1  UNL1        0.1538
     16 N         148.7101  141.9193  156.1516 N.ar    1  UNL1       -0.1539
     17 O         142.2519  144.3545  160.4172 O.3     1  UNL1       -0.4765
     18 C         141.7472  144.5494  161.8162 C.3     1  UNL1        0.1954
     19 C         142.7179  144.7308  162.9452 C.3     1  UNL1        0.0500
     20 C         140.2717  144.5629  162.0861 C.3     1  UNL1        0.1855
     21 C         138.2169  142.9904  161.8516 C.3     1  UNL1        0.1743
     22 O         139.5628  143.2900  162.4424 O.3     1  UNL1       -0.3473
     23 O         142.3862  139.1855  160.9311 O.3     1  UNL1       -0.4534
     24 C         142.6551  138.9797  162.3924 C.ar    1  UNL1        0.1453
     25 C         141.6521  138.2613  163.2456 C.ar    1  UNL1        0.0376
     26 C         141.9210  138.0555  164.7069 C.ar    1  UNL1        0.0076
     27 C         143.1929  138.5681  165.3149 C.ar    1  UNL1        0.0538
     28 C         144.1958  139.2864  164.4617 C.ar    1  UNL1        0.0076
     29 C         143.9270  139.4922  163.0004 C.ar    1  UNL1        0.0376
     30 C         143.4618  138.3622  166.7762 C.2     1  UNL1        0.2490
     31 O         144.5277  137.4023  167.2147 O.2     1  UNL1       -0.2699
     32 N         142.6648  139.1164  167.7990 N.am    1  UNL1       -0.2760
     33 C         141.5563  140.1256  167.7466 C.3     1  UNL1        0.0955
     34 C         141.5376  140.1829  169.2454 C.3     1  UNL1        0.0430
     35 C         142.6462  139.1737  169.2978 C.3     1  UNL1        0.0955
@<TRIPOS>BOND
     1    21    22    1
     2    22    20    1
     3    20    18    1
     4    18    19    1
     5    18    17    1
     6    17     1    1
     7     1     2   ar
     8     2     3   ar
     9     3    23    1
    10    23    24    1
    11    24    25   ar
    12    25    26   ar
    13    26    27   ar
    14    27    30    1
    15    30    31    2
    16    30    32   am
    17    32    33    1
    18    33    34    1
    19    34    35    1
    20    27    28   ar
    21    28    29   ar
    22     3     4   ar
    23     4     5   ar
    24     5     7    1
    25     7     8    2
    26     7     9   am
    27     9    11    1
    28    11    12   ar
    29    12    13   ar
    30    13    14   ar
    31    14    15    1
    32    14    16   ar
    33     5     6   ar
    34     6     1   ar
    35    29    24   ar
    36    16    11   ar
    37    35    32    1
    38     9    10    1
@<TRIPOS>MOLECULE
*****
 35 38 0 0 0
SMALL
GASTEIGER

@<TRIPOS>ATOM
      1 C         140.4693  138.2742  161.6515 C.ar    1  UNL1        0.1417
      2 C         139.6849  138.8203  162.8075 C.ar    1  UNL1        0.0743
      3 C         138.4837  139.6834  162.5580 C.ar    1  UNL1        0.1485
      4 C         138.0669  140.0003  161.1523 C.ar    1  UNL1        0.0422
      5 C         138.8513  139.4542  159.9963 C.ar    1  UNL1        0.0597
      6 C         140.0525  138.5911  160.2459 C.ar    1  UNL1        0.0416
      7 C         138.4345  139.7711  158.5906 C.2     1  UNL1        0.2508
      8 O         139.1266  139.1095  157.4359 O.2     1  UNL1       -0.2698
      9 N         137.3256  140.7495  158.3396 N.am    1  UNL1       -0.2644
     10 H         136.8714  141.1837  159.0975 H       1  UNL1        0.1566
     11 C         136.9088  141.0664  156.9339 C.ar    1  UNL1        0.1557
     12 C         137.1364  142.3650  156.2185 C.ar    1  UNL1        0.0564
     13 C         136.5595  142.2416  154.8393 C.ar    1  UNL1        0.0981
     14 N         135.9755  140.8667  154.7024 N.ar    1  UNL1       -0.2462
     15 C         135.2951  140.3149  153.4849 C.3     1  UNL1        0.1538
     16 N         136.1914  140.1404  155.9970 N.ar    1  UNL1       -0.1539
     17 O         141.6705  137.4112  161.9011 O.3     1  UNL1       -0.4765
     18 C         143.0273  138.0358  162.0386 C.3     1  UNL1        0.1954
     19 C         144.1525  137.5874  161.1538 C.3     1  UNL1        0.0500
     20 C         143.2589  139.1088  163.0609 C.3     1  UNL1        0.1855
     21 C         142.2302  138.1724  165.2552 C.3     1  UNL1        0.1743
     22 O         143.3984  138.7467  164.5098 O.3     1  UNL1       -0.3473
     23 O         137.6993  140.2295  163.7141 O.3     1  UNL1       -0.4534
     24 C         138.2955  140.2320  165.0905 C.ar    1  UNL1        0.1453
     25 C         139.2265  141.3337  165.5026 C.ar    1  UNL1        0.0376
     26 C         139.8227  141.3362  166.8790 C.ar    1  UNL1        0.0076
     27 C         139.4880  140.2370  167.8433 C.ar    1  UNL1        0.0538
     28 C         138.5570  139.1354  167.4312 C.ar    1  UNL1        0.0076
     29 C         137.9608  139.1330  166.0548 C.ar    1  UNL1        0.0376
     30 C         140.0842  140.2395  169.2197 C.2     1  UNL1        0.2490
     31 O         139.2988  139.7002  170.3783 O.2     1  UNL1       -0.2699
     32 N         141.4658  140.7814  169.4376 N.am    1  UNL1       -0.2760
     33 C         142.5201  141.3838  168.5568 C.3     1  UNL1        0.0955
     34 C         143.4198  141.5478  169.7458 C.3     1  UNL1        0.0430
     35 C         142.3655  140.9454  170.6266 C.3     1  UNL1        0.0955
@<TRIPOS>BOND
     1    21    22    1
     2    22    20    1
     3    20    18    1
     4    18    19    1
     5    18    17    1
     6    17     1    1
     7     1     2   ar
     8     2     3   ar
     9     3    23    1
    10    23    24    1
    11    24    25   ar
    12    25    26   ar
    13    26    27   ar
    14    27    30    1
    15    30    31    2
    16    30    32   am
    17    32    33    1
    18    33    34    1
    19    34    35    1
    20    27    28   ar
    21    28    29   ar
    22     3     4   ar
    23     4     5   ar
    24     5     7    1
    25     7     8    2
    26     7     9   am
    27     9    11    1
    28    11    12   ar
    29    12    13   ar
    30    13    14   ar
    31    14    15    1
    32    14    16   ar
    33     5     6   ar
    34     6     1   ar
    35    29    24   ar
    36    16    11   ar
    37    35    32    1
    38     9    10    1
@<TRIPOS>MOLECULE
*****
 35 38 0 0 0
SMALL
GASTEIGER

@<TRIPOS>ATOM
      1 C         138.0563  142.5659  161.9585 C.ar    1  UNL1        0.1417
      2 C         138.0593  141.4934  163.0072 C.ar    1  UNL1        0.0743
      3 C         138.3653  140.0747  162.6281 C.ar    1  UNL1        0.1485
      4 C         138.6683  139.7285  161.2005 C.ar    1  UNL1        0.0422
      5 C         138.6654  140.8010  160.1518 C.ar    1  UNL1        0.0597
      6 C         138.3594  142.2197  160.5309 C.ar    1  UNL1        0.0416
      7 C         138.9684  140.4548  158.7241 C.2     1  UNL1        0.2508
      8 O         140.3751  140.1363  158.3119 O.2     1  UNL1       -0.2698
      9 N         137.8648  140.4272  157.7086 N.am    1  UNL1       -0.2644
     10 H         136.9416  140.6362  157.9791 H       1  UNL1        0.1566
     11 C         138.1679  140.0810  156.2808 C.ar    1  UNL1        0.1557
     12 C         138.2617  141.0499  155.1396 C.ar    1  UNL1        0.0564
     13 C         138.5821  140.2729  153.8971 C.ar    1  UNL1        0.0981
     14 N         138.6863  138.8239  154.2705 N.ar    1  UNL1       -0.2462
     15 C         138.9927  137.6922  153.3350 C.3     1  UNL1        0.1538
     16 N         138.4303  138.7053  155.7437 N.ar    1  UNL1       -0.1539
     17 O         137.7504  143.9846  162.3376 O.3     1  UNL1       -0.4765
     18 C         138.8168  144.8443  162.9486 C.3     1  UNL1        0.1954
     19 C         139.0845  144.7730  164.4228 C.3     1  UNL1        0.0500
     20 C         139.6157  145.7754  162.0855 C.3     1  UNL1        0.1855
     21 C         141.4588  143.9627  161.8256 C.3     1  UNL1        0.1743
     22 O         140.9029  145.3102  161.4716 O.3     1  UNL1       -0.3473
     23 O         138.3682  139.0021  163.6769 O.3     1  UNL1       -0.4534
     24 C         138.9472  139.2802  165.0324 C.ar    1  UNL1        0.1453
     25 C         138.0648  139.2514  166.2451 C.ar    1  UNL1        0.0376
     26 C         138.6438  139.5295  167.6006 C.ar    1  UNL1        0.0076
     27 C         140.1051  139.8364  167.7434 C.ar    1  UNL1        0.0538
     28 C         140.9874  139.8652  166.5307 C.ar    1  UNL1        0.0076
     29 C         140.4084  139.5871  165.1752 C.ar    1  UNL1        0.0376
     30 C         140.6841  140.1145  169.0990 C.2     1  UNL1        0.2490
     31 O         140.1033  139.4520  170.3129 O.2     1  UNL1       -0.2699
     32 N         141.8440  141.0551  169.2405 N.am    1  UNL1       -0.2760
     33 C         142.6649  141.8772  168.2916 C.3     1  UNL1        0.0955
     34 C         143.4842  142.3854  169.4408 C.3     1  UNL1        0.0430
     35 C         142.6633  141.5633  170.3896 C.3     1  UNL1        0.0955
@<TRIPOS>BOND
     1    21    22    1
     2    22    20    1
     3    20    18    1
     4    18    19    1
     5    18    17    1
     6    17     1    1
     7     1     2   ar
     8     2     3   ar
     9     3    23    1
    10    23    24    1
    11    24    25   ar
    12    25    26   ar
    13    26    27   ar
    14    27    30    1
    15    30    31    2
    16    30    32   am
    17    32    33    1
    18    33    34    1
    19    34    35    1
    20    27    28   ar
    21    28    29   ar
    22     3     4   ar
    23     4     5   ar
    24     5     7    1
    25     7     8    2
    26     7     9   am
    27     9    11    1
    28    11    12   ar
    29    12    13   ar
    30    13    14   ar
    31    14    15    1
    32    14    16   ar
    33     5     6   ar
    34     6     1   ar
    35    29    24   ar
    36    16    11   ar
    37    35    32    1
    38     9    10    1
@<TRIPOS>MOLECULE
*****
 35 38 0 0 0
SMALL
GASTEIGER

@<TRIPOS>ATOM
      1 C         142.9138  143.1979  161.0479 C.ar    1  UNL1        0.1417
      2 C         141.8977  142.1453  161.3789 C.ar    1  UNL1        0.0743
      3 C         141.8472  140.8749  160.5829 C.ar    1  UNL1        0.1485
      4 C         142.8127  140.6571  159.4559 C.ar    1  UNL1        0.0422
      5 C         143.8288  141.7097  159.1249 C.ar    1  UNL1        0.0597
      6 C         143.8793  142.9801  159.9209 C.ar    1  UNL1        0.0416
      7 C         144.7944  141.4920  157.9978 C.2     1  UNL1        0.2508
      8 O         144.8334  140.1710  157.2882 O.2     1  UNL1       -0.2698
      9 N         145.7210  142.5952  157.5804 N.am    1  UNL1       -0.2644
     10 H         145.6955  143.4622  158.0461 H       1  UNL1        0.1566
     11 C         146.6867  142.3775  156.4533 C.ar    1  UNL1        0.1557
     12 C         146.3461  142.3547  154.9926 C.ar    1  UNL1        0.0564
     13 C         147.6113  142.1074  154.2256 C.ar    1  UNL1        0.0981
     14 N         148.7337  141.9774  155.2123 N.ar    1  UNL1       -0.2462
     15 C         150.1745  141.7249  154.8804 C.3     1  UNL1        0.1538
     16 N         148.1622  142.1443  156.5890 N.ar    1  UNL1       -0.1539
     17 O         142.9643  144.4682  161.8440 O.3     1  UNL1       -0.4765
     18 C         142.8516  144.4215  163.3390 C.3     1  UNL1        0.1954
     19 C         141.5613  144.7957  164.0059 C.3     1  UNL1        0.0500
     20 C         144.0294  144.0005  164.1671 C.3     1  UNL1        0.1855
     21 C         145.4612  141.9408  163.4904 C.3     1  UNL1        0.1743
     22 O         144.3619  142.5451  164.3129 O.3     1  UNL1       -0.3473
     23 O         140.8310  139.8223  160.9140 O.3     1  UNL1       -0.4534
     24 C         140.2945  139.7106  162.3103 C.ar    1  UNL1        0.1453
     25 C         141.0488  138.9269  163.3432 C.ar    1  UNL1        0.0376
     26 C         140.5123  138.8153  164.7395 C.ar    1  UNL1        0.0076
     27 C         139.2214  139.4873  165.1029 C.ar    1  UNL1        0.0538
     28 C         138.4671  140.2710  164.0700 C.ar    1  UNL1        0.0076
     29 C         139.0037  140.3826  162.6737 C.ar    1  UNL1        0.0376
     30 C         138.6849  139.3757  166.4992 C.2     1  UNL1        0.2490
     31 O         137.4169  138.6168  166.7570 O.2     1  UNL1       -0.2699
     32 N         139.4163  140.0229  167.6377 N.am    1  UNL1       -0.2760
     33 C         140.6702  140.8358  167.7675 C.3     1  UNL1        0.0955
     34 C         140.4507  140.9381  169.2478 C.3     1  UNL1        0.0430
     35 C         139.1968  140.1251  169.1180 C.3     1  UNL1        0.0955
@<TRIPOS>BOND
     1    21    22    1
     2    22    20    1
     3    20    18    1
     4    18    19    1
     5    18    17    1
     6    17     1    1
     7     1     2   ar
     8     2     3   ar
     9     3    23    1
    10    23    24    1
    11    24    25   ar
    12    25    26   ar
    13    26    27   ar
    14    27    30    1
    15    30    31    2
    16    30    32   am
    17    32    33    1
    18    33    34    1
    19    34    35    1
    20    27    28   ar
    21    28    29   ar
    22     3     4   ar
    23     4     5   ar
    24     5     7    1
    25     7     8    2
    26     7     9   am
    27     9    11    1
    28    11    12   ar
    29    12    13   ar
    30    13    14   ar
    31    14    15    1
    32    14    16   ar
    33     5     6   ar
    34     6     1   ar
    35    29    24   ar
    36    16    11   ar
    37    35    32    1
    38     9    10    1
