@<TRIPOS>MOLECULE
*****
 18 20 0 0 0
SMALL
GASTEIGER

@<TRIPOS>ATOM
      1 C         138.6951  139.9398  165.9288 C.ar    1  UNL1       -0.0207
      2 C         139.8125  140.6144  166.6680 C.ar    1  UNL1       -0.0027
      3 C         140.1993  142.0214  166.3211 C.ar    1  UNL1        0.0188
      4 C         139.4689  142.7540  165.2348 C.ar    1  UNL1        0.0813
      5 N         139.8557  144.1610  164.8878 N.ar    1  UNL1       -0.2438
      6 C         139.1253  144.8935  163.8016 C.ar    1  UNL1        0.0988
      7 C         138.0079  144.2189  163.0624 C.ar    1  UNL1        0.0207
      8 C         137.6210  142.8118  163.4094 C.ar    1  UNL1        0.0031
      9 C         138.3515  142.0794  164.4956 C.ar    1  UNL1        0.0174
     10 C         137.9646  140.6722  164.8426 C.ar    1  UNL1       -0.0027
     11 C         138.3082  138.5326  166.2759 C.3     1  UNL1        0.0437
     12 C         138.6423  137.4101  165.3386 C.3     1  UNL1        0.0768
     13 C         138.2022  138.0629  162.1716 C.3     1  UNL1        0.0173
     14 C         139.5230  137.8845  162.8598 C.3     1  UNL1        0.0576
     15 C         140.8734  137.9748  162.2131 C.3     1  UNL1        0.0174
     16 C         141.9103  137.7305  163.2692 C.3     1  UNL1        0.0187
     17 C         141.2007  137.4893  164.5685 C.3     1  UNL1        0.0721
     18 N         139.7253  137.5844  164.3156 N.3     1  UNL1       -0.2737
@<TRIPOS>BOND
     1    14    13    1
     2    14    15    1
     3    15    16    1
     4    16    17    1
     5    17    18    1
     6    18    12    1
     7    12    11    1
     8    11     1    1
     9     1     2   ar
    10     2     3   ar
    11     3     4   ar
    12     4     5   ar
    13     5     6   ar
    14     6     7   ar
    15     7     8   ar
    16     8     9   ar
    17     9    10   ar
    18    18    14    1
    19    10     1   ar
    20     9     4   ar
@<TRIPOS>MOLECULE
*****
 18 20 0 0 0
SMALL
GASTEIGER

@<TRIPOS>ATOM
      1 C         137.9233  142.7580  164.0816 C.ar    1  UNL1       -0.0207
      2 C         137.6604  142.5454  162.6202 C.ar    1  UNL1       -0.0027
      3 C         137.7959  141.1751  162.0253 C.ar    1  UNL1        0.0188
      4 C         138.1944  140.0173  162.8919 C.ar    1  UNL1        0.0813
      5 N         138.3299  138.6470  162.2970 N.ar    1  UNL1       -0.2438
      6 C         138.7283  137.4893  163.1636 C.ar    1  UNL1        0.0988
      7 C         138.9913  137.7019  164.6250 C.ar    1  UNL1        0.0207
      8 C         138.8557  139.0722  165.2198 C.ar    1  UNL1        0.0031
      9 C         138.4573  140.2299  164.3533 C.ar    1  UNL1        0.0174
     10 C         138.3218  141.6003  164.9481 C.ar    1  UNL1       -0.0027
     11 C         137.7878  144.1284  164.6764 C.3     1  UNL1        0.0437
     12 C         139.0101  144.9596  164.9311 C.3     1  UNL1        0.0768
     13 C         139.8043  146.0909  161.9749 C.3     1  UNL1        0.0173
     14 C         140.6464  145.1911  162.8301 C.3     1  UNL1        0.0576
     15 C         142.0013  144.6534  162.4767 C.3     1  UNL1        0.0174
     16 C         142.4736  143.8011  163.6171 C.3     1  UNL1        0.0187
     17 C         141.4106  143.8121  164.6753 C.3     1  UNL1        0.0721
     18 N         140.2813  144.6712  164.1889 N.3     1  UNL1       -0.2737
@<TRIPOS>BOND
     1    14    13    1
     2    14    15    1
     3    15    16    1
     4    16    17    1
     5    17    18    1
     6    18    12    1
     7    12    11    1
     8    11     1    1
     9     1     2   ar
    10     2     3   ar
    11     3     4   ar
    12     4     5   ar
    13     5     6   ar
    14     6     7   ar
    15     7     8   ar
    16     8     9   ar
    17     9    10   ar
    18    18    14    1
    19    10     1   ar
    20     9     4   ar
@<TRIPOS>MOLECULE
*****
 18 20 0 0 0
SMALL
GASTEIGER

@<TRIPOS>ATOM
      1 C         140.7289  140.5021  166.3359 C.ar    1  UNL1       -0.0207
      2 C         139.4607  139.7866  165.9758 C.ar    1  UNL1       -0.0027
      3 C         138.3980  140.4943  165.1884 C.ar    1  UNL1        0.0188
      4 C         138.6036  141.9174  164.7611 C.ar    1  UNL1        0.0813
      5 N         137.5410  142.6250  163.9738 N.ar    1  UNL1       -0.2438
      6 C         137.7466  144.0481  163.5465 C.ar    1  UNL1        0.0988
      7 C         139.0149  144.7635  163.9066 C.ar    1  UNL1        0.0207
      8 C         140.0775  144.0559  164.6940 C.ar    1  UNL1        0.0031
      9 C         139.8719  142.6328  165.1212 C.ar    1  UNL1        0.0174
     10 C         140.9346  141.9251  165.9087 C.ar    1  UNL1       -0.0027
     11 C         141.7916  139.7943  167.1234 C.3     1  UNL1        0.0437
     12 C         141.8831  139.9932  168.6073 C.3     1  UNL1        0.0768
     13 C         138.9144  140.4236  169.8922 C.3     1  UNL1        0.0173
     14 C         140.0012  141.4548  169.8186 C.3     1  UNL1        0.0576
     15 C         139.9143  142.8649  170.3227 C.3     1  UNL1        0.0174
     16 C         141.2252  143.5385  170.0435 C.3     1  UNL1        0.0187
     17 C         142.1222  142.5447  169.3670 C.3     1  UNL1        0.0721
     18 N         141.3658  141.2569  169.2280 N.3     1  UNL1       -0.2737
@<TRIPOS>BOND
     1    14    13    1
     2    14    15    1
     3    15    16    1
     4    16    17    1
     5    17    18    1
     6    18    12    1
     7    12    11    1
     8    11     1    1
     9     1     2   ar
    10     2     3   ar
    11     3     4   ar
    12     4     5   ar
    13     5     6   ar
    14     6     7   ar
    15     7     8   ar
    16     8     9   ar
    17     9    10   ar
    18    18    14    1
    19    10     1   ar
    20     9     4   ar
@<TRIPOS>MOLECULE
*****
 18 20 0 0 0
SMALL
GASTEIGER

@<TRIPOS>ATOM
      1 C         140.7622  140.3948  166.9873 C.ar    1  UNL1       -0.0207
      2 C         140.9508  141.8758  166.8428 C.ar    1  UNL1       -0.0027
      3 C         142.1332  142.4115  166.0912 C.ar    1  UNL1        0.0188
      4 C         143.1270  141.4662  165.4840 C.ar    1  UNL1        0.0813
      5 N         144.3094  142.0019  164.7324 N.ar    1  UNL1       -0.2438
      6 C         145.3032  141.0565  164.1253 C.ar    1  UNL1        0.0988
      7 C         145.1146  139.5754  164.2698 C.ar    1  UNL1        0.0207
      8 C         143.9322  139.0397  165.0214 C.ar    1  UNL1        0.0031
      9 C         142.9384  139.9851  165.6285 C.ar    1  UNL1        0.0174
     10 C         141.7560  139.4494  166.3802 C.ar    1  UNL1       -0.0027
     11 C         139.5797  139.8591  167.7389 C.3     1  UNL1        0.0437
     12 C         138.4030  139.3064  166.9907 C.3     1  UNL1        0.0768
     13 C         138.0572  141.3489  164.4691 C.3     1  UNL1        0.0173
     14 C         138.3787  139.8864  164.3814 C.3     1  UNL1        0.0576
     15 C         138.5978  139.1060  163.1193 C.3     1  UNL1        0.0174
     16 C         138.8921  137.6848  163.4983 C.3     1  UNL1        0.0187
     17 C         138.8550  137.5869  164.9947 C.3     1  UNL1        0.0721
     18 N         138.5377  138.9476  165.5405 N.3     1  UNL1       -0.2737
@<TRIPOS>BOND
     1    14    13    1
     2    14    15    1
     3    15    16    1
     4    16    17    1
     5    17    18    1
     6    18    12    1
     7    12    11    1
     8    11     1    1
     9     1     2   ar
    10     2     3   ar
    11     3     4   ar
    12     4     5   ar
    13     5     6   ar
    14     6     7   ar
    15     7     8   ar
    16     8     9   ar
    17     9    10   ar
    18    18    14    1
    19    10     1   ar
    20     9     4   ar
@<TRIPOS>MOLECULE
*****
 18 20 0 0 0
SMALL
GASTEIGER

@<TRIPOS>ATOM
      1 C         139.7330  141.9788  165.9256 C.ar    1  UNL1       -0.0207
      2 C         139.2538  140.5645  166.0675 C.ar    1  UNL1       -0.0027
      3 C         139.3777  139.8594  167.3855 C.ar    1  UNL1        0.0188
      4 C         139.9808  140.5685  168.5618 C.ar    1  UNL1        0.0813
      5 N         140.1047  139.8633  169.8798 N.ar    1  UNL1       -0.2438
      6 C         140.7078  140.5724  171.0560 C.ar    1  UNL1        0.0988
      7 C         141.1870  141.9867  170.9141 C.ar    1  UNL1        0.0207
      8 C         141.0631  142.6919  169.5960 C.ar    1  UNL1        0.0031
      9 C         140.4600  141.9828  168.4199 C.ar    1  UNL1        0.0174
     10 C         140.3361  142.6880  167.1017 C.ar    1  UNL1       -0.0027
     11 C         139.6091  142.6840  164.6074 C.3     1  UNL1        0.0437
     12 C         140.7493  142.6586  163.6332 C.3     1  UNL1        0.0768
     13 C         143.3337  141.5170  165.2663 C.3     1  UNL1        0.0173
     14 C         143.1964  142.8921  164.6830 C.3     1  UNL1        0.0576
     15 C         144.2229  143.9839  164.7480 C.3     1  UNL1        0.0174
     16 C         143.6694  145.1834  164.0375 C.3     1  UNL1        0.0187
     17 C         142.3008  144.8329  163.5334 C.3     1  UNL1        0.0721
     18 N         142.0085  143.4168  163.9324 N.3     1  UNL1       -0.2737
@<TRIPOS>BOND
     1    14    13    1
     2    14    15    1
     3    15    16    1
     4    16    17    1
     5    17    18    1
     6    18    12    1
     7    12    11    1
     8    11     1    1
     9     1     2   ar
    10     2     3   ar
    11     3     4   ar
    12     4     5   ar
    13     5     6   ar
    14     6     7   ar
    15     7     8   ar
    16     8     9   ar
    17     9    10   ar
    18    18    14    1
    19    10     1   ar
    20     9     4   ar
@<TRIPOS>MOLECULE
*****
 18 20 0 0 0
SMALL
GASTEIGER

@<TRIPOS>ATOM
      1 C         141.4111  141.9243  165.3975 C.ar    1  UNL1       -0.0207
      2 C         140.8162  140.5726  165.1347 C.ar    1  UNL1       -0.0027
      3 C         140.0664  139.8592  166.2203 C.ar    1  UNL1        0.0188
      4 C         139.9114  140.4975  167.5689 C.ar    1  UNL1        0.0813
      5 N         139.1615  139.7841  168.6546 N.ar    1  UNL1       -0.2438
      6 C         139.0066  140.4224  170.0031 C.ar    1  UNL1        0.0988
      7 C         139.6014  141.7741  170.2660 C.ar    1  UNL1        0.0207
      8 C         140.3513  142.4875  169.1803 C.ar    1  UNL1        0.0031
      9 C         140.5062  141.8492  167.8318 C.ar    1  UNL1        0.0174
     10 C         141.2561  142.5626  166.7460 C.ar    1  UNL1       -0.0027
     11 C         142.1609  142.6377  164.3117 C.3     1  UNL1        0.0437
     12 C         141.4771  143.6973  163.4995 C.3     1  UNL1        0.0768
     13 C         138.8959  144.8404  165.1366 C.3     1  UNL1        0.0173
     14 C         138.8527  144.0554  163.8591 C.3     1  UNL1        0.0576
     15 C         137.6155  143.6580  163.1099 C.3     1  UNL1        0.0174
     16 C         138.0374  142.8869  161.8943 C.3     1  UNL1        0.0187
     17 C         139.5353  142.8078  161.8924 C.3     1  UNL1        0.0721
     18 N         140.0392  143.5300  163.1067 N.3     1  UNL1       -0.2737
@<TRIPOS>BOND
     1    14    13    1
     2    14    15    1
     3    15    16    1
     4    16    17    1
     5    17    18    1
     6    18    12    1
     7    12    11    1
     8    11     1    1
     9     1     2   ar
    10     2     3   ar
    11     3     4   ar
    12     4     5   ar
    13     5     6   ar
    14     6     7   ar
    15     7     8   ar
    16     8     9   ar
    17     9    10   ar
    18    18    14    1
    19    10     1   ar
    20     9     4   ar
@<TRIPOS>MOLECULE
*****
 18 20 0 0 0
SMALL
GASTEIGER

@<TRIPOS>ATOM
      1 C         142.1860  140.7289  166.4070 C.ar    1  UNL1       -0.0207
      2 C         140.7971  140.8908  165.8643 C.ar    1  UNL1       -0.0027
      3 C         140.4711  142.0517  164.9720 C.ar    1  UNL1        0.0188
      4 C         141.5341  143.0506  164.6224 C.ar    1  UNL1        0.0813
      5 N         141.2081  144.2114  163.7301 N.ar    1  UNL1       -0.2438
      6 C         142.2711  145.2103  163.3806 C.ar    1  UNL1        0.0988
      7 C         143.6601  145.0484  163.9233 C.ar    1  UNL1        0.0207
      8 C         143.9860  143.8876  164.8156 C.ar    1  UNL1        0.0031
      9 C         142.9231  142.8887  165.1651 C.ar    1  UNL1        0.0174
     10 C         143.2490  141.7278  166.0574 C.ar    1  UNL1       -0.0027
     11 C         142.5120  139.5680  167.2993 C.3     1  UNL1        0.0437
     12 C         142.2791  139.6699  168.7776 C.3     1  UNL1        0.0768
     13 C         143.8131  142.3911  169.7217 C.3     1  UNL1        0.0173
     14 C         142.3349  142.1448  169.7860 C.3     1  UNL1        0.0576
     15 C         141.3022  143.1060  170.2955 C.3     1  UNL1        0.0174
     16 C         139.9589  142.4492  170.1764 C.3     1  UNL1        0.0187
     17 C         140.1613  141.0821  169.5933 C.3     1  UNL1        0.0721
     18 N         141.6298  140.8939  169.3520 N.3     1  UNL1       -0.2737
@<TRIPOS>BOND
     1    14    13    1
     2    14    15    1
     3    15    16    1
     4    16    17    1
     5    17    18    1
     6    18    12    1
     7    12    11    1
     8    11     1    1
     9     1     2   ar
    10     2     3   ar
    11     3     4   ar
    12     4     5   ar
    13     5     6   ar
    14     6     7   ar
    15     7     8   ar
    16     8     9   ar
    17     9    10   ar
    18    18    14    1
    19    10     1   ar
    20     9     4   ar
@<TRIPOS>MOLECULE
*****
 18 20 0 0 0
SMALL
GASTEIGER

@<TRIPOS>ATOM
      1 C         138.4687  141.0422  164.7321 C.ar    1  UNL1       -0.0207
      2 C         137.5171  141.2517  163.5918 C.ar    1  UNL1       -0.0027
      3 C         137.7067  142.4119  162.6601 C.ar    1  UNL1        0.0188
      4 C         138.8481  143.3626  162.8688 C.ar    1  UNL1        0.0813
      5 N         139.0377  144.5228  161.9372 N.ar    1  UNL1       -0.2438
      6 C         140.1790  145.4734  162.1459 C.ar    1  UNL1        0.0988
      7 C         141.1307  145.2639  163.2863 C.ar    1  UNL1        0.0207
      8 C         140.9411  144.1037  164.2179 C.ar    1  UNL1        0.0031
      9 C         139.7998  143.1531  164.0092 C.ar    1  UNL1        0.0174
     10 C         139.6101  141.9928  164.9408 C.ar    1  UNL1       -0.0027
     11 C         138.2791  139.8819  165.6638 C.3     1  UNL1        0.0437
     12 C         138.5643  138.4869  165.1920 C.3     1  UNL1        0.0768
     13 C         138.2380  138.0513  161.9744 C.3     1  UNL1        0.0173
     14 C         139.5280  138.0371  162.7397 C.3     1  UNL1        0.0576
     15 C         140.8944  137.8202  162.1603 C.3     1  UNL1        0.0174
     16 C         141.8890  137.8864  163.2813 C.3     1  UNL1        0.0187
     17 C         141.1372  138.1442  164.5534 C.3     1  UNL1        0.0721
     18 N         139.6780  138.2373  164.2187 N.3     1  UNL1       -0.2737
@<TRIPOS>BOND
     1    14    13    1
     2    14    15    1
     3    15    16    1
     4    16    17    1
     5    17    18    1
     6    18    12    1
     7    12    11    1
     8    11     1    1
     9     1     2   ar
    10     2     3   ar
    11     3     4   ar
    12     4     5   ar
    13     5     6   ar
    14     6     7   ar
    15     7     8   ar
    16     8     9   ar
    17     9    10   ar
    18    18    14    1
    19    10     1   ar
    20     9     4   ar
@<TRIPOS>MOLECULE
*****
 18 20 0 0 0
SMALL
GASTEIGER

@<TRIPOS>ATOM
      1 C         140.3268  139.6687  165.9147 C.ar    1  UNL1       -0.0207
      2 C         141.7701  139.2669  165.8411 C.ar    1  UNL1       -0.0027
      3 C         142.6333  139.3434  167.0654 C.ar    1  UNL1        0.0188
      4 C         142.0532  139.8217  168.3634 C.ar    1  UNL1        0.0813
      5 N         142.9164  139.8983  169.5877 N.ar    1  UNL1       -0.2438
      6 C         142.3362  140.3765  170.8857 C.ar    1  UNL1        0.0988
      7 C         140.8929  140.7783  170.9593 C.ar    1  UNL1        0.0207
      8 C         140.0297  140.7018  169.7350 C.ar    1  UNL1        0.0031
      9 C         140.6098  140.2235  168.4370 C.ar    1  UNL1        0.0174
     10 C         139.7466  140.1470  167.2126 C.ar    1  UNL1       -0.0027
     11 C         139.4636  139.5921  164.6903 C.3     1  UNL1        0.0437
     12 C         139.4474  140.7289  163.7118 C.3     1  UNL1        0.0768
     13 C         141.5582  142.9419  164.8507 C.3     1  UNL1        0.0173
     14 C         140.0778  143.1311  164.7003 C.3     1  UNL1        0.0576
     15 C         139.3078  144.3708  165.0470 C.3     1  UNL1        0.0174
     16 C         137.8616  144.1198  164.7377 C.3     1  UNL1        0.0187
     17 C         137.7379  142.7250  164.2000 C.3     1  UNL1        0.0721
     18 N         139.1076  142.1139  164.1768 N.3     1  UNL1       -0.2737
@<TRIPOS>BOND
     1    14    13    1
     2    14    15    1
     3    15    16    1
     4    16    17    1
     5    17    18    1
     6    18    12    1
     7    12    11    1
     8    11     1    1
     9     1     2   ar
    10     2     3   ar
    11     3     4   ar
    12     4     5   ar
    13     5     6   ar
    14     6     7   ar
    15     7     8   ar
    16     8     9   ar
    17     9    10   ar
    18    18    14    1
    19    10     1   ar
    20     9     4   ar
