@<TRIPOS>MOLECULE
*****
 28 30 0 0 0
SMALL
GASTEIGER

@<TRIPOS>ATOM
      1 C         139.2399  139.9974  165.6074 C.ar    1  UNL1        0.0621
      2 C         139.7354  140.1857  167.0106 C.ar    1  UNL1        0.0294
      3 C         140.3645  141.4857  167.4157 C.ar    1  UNL1        0.0519
      4 C         140.4982  142.5974  166.4176 C.ar    1  UNL1        0.0486
      5 C         140.0027  142.4092  165.0144 C.ar    1  UNL1        0.1294
      6 N         139.3736  141.1092  164.6093 N.ar    1  UNL1       -0.2351
      7 N         140.8600  141.6741  168.8189 N.pl3   1  UNL1       -0.3027
      8 C         140.3109  140.8268  169.9283 C.3     1  UNL1        0.1231
      9 C         140.8063  141.0151  171.3315 C.3     1  UNL1        0.1636
     10 O         141.8510  142.0507  171.6254 O.3     1  UNL1       -0.3501
     11 C         142.4002  142.8979  170.5161 C.3     1  UNL1        0.1636
     12 C         141.9047  142.7096  169.1128 C.3     1  UNL1        0.1231
     13 N         140.1363  143.5209  164.0163 N.pl3   1  UNL1       -0.3160
     14 H         140.9802  143.6414  163.5238 H       1  UNL1        0.1483
     15 C         138.9843  144.4489  163.7685 C.3     1  UNL1        0.1207
     16 C         137.7692  143.9580  163.0387 C.3     1  UNL1        0.1634
     17 O         137.8723  143.5535  161.5978 O.3     1  UNL1       -0.3493
     18 C         138.2942  142.1597  161.2385 C.3     1  UNL1        0.1742
     19 C         138.6107  138.6974  165.2022 C.3     1  UNL1        0.0556
     20 C         139.4736  137.5495  164.7688 C.3     1  UNL1        0.0916
     21 C         142.8985  138.5073  163.2137 C.ar    1  UNL1        0.1377
     22 O         141.9541  138.4657  164.3785 O.2     1  UNL1       -0.4430
     23 C         140.6882  137.8009  163.9252 C.ar    1  UNL1        0.2053
     24 N         140.8500  137.4317  162.4804 N.ar    1  UNL1       -0.2168
     25 C         142.2160  137.8683  162.0406 C.ar    1  UNL1        0.0923
     26 C         142.7974  137.6960  160.6688 C.3     1  UNL1        0.0551
     27 C         144.6201  140.2104  164.1546 C.3     1  UNL1        0.0085
     28 C         144.2822  139.0863  163.2207 C.3     1  UNL1        0.0658
@<TRIPOS>BOND
     1    27    28    1
     2    28    21    1
     3    21    22   ar
     4    22    23   ar
     5    23    20    1
     6    20    19    1
     7    19     1    1
     8     1     2   ar
     9     2     3   ar
    10     3     7    1
    11     7     8    1
    12     8     9    1
    13     9    10    1
    14    10    11    1
    15    11    12    1
    16     3     4   ar
    17     4     5   ar
    18     5    13    1
    19    13    15    1
    20    15    16    1
    21    16    17    1
    22    17    18    1
    23     5     6   ar
    24    23    24   ar
    25    24    25   ar
    26    25    26    1
    27    25    21   ar
    28     6     1   ar
    29    12     7    1
    30    13    14    1
@<TRIPOS>MOLECULE
*****
 28 30 0 0 0
SMALL
GASTEIGER

@<TRIPOS>ATOM
      1 C         143.4595  141.7294  165.5168 C.ar    1  UNL1        0.0621
      2 C         142.9764  142.0720  166.8949 C.ar    1  UNL1        0.0294
      3 C         141.9890  141.1798  167.5869 C.ar    1  UNL1        0.0519
      4 C         141.4847  139.9449  166.9007 C.ar    1  UNL1        0.0486
      5 C         141.9678  139.6023  165.5226 C.ar    1  UNL1        0.1294
      6 N         142.9552  140.4946  164.8307 N.ar    1  UNL1       -0.2351
      7 N         141.5059  141.5224  168.9650 N.pl3   1  UNL1       -0.3027
      8 C         140.4639  142.5851  169.1519 C.3     1  UNL1        0.1231
      9 C         139.9808  142.9277  170.5299 C.3     1  UNL1        0.1636
     10 O         140.5396  142.2076  171.7213 O.3     1  UNL1       -0.3501
     11 C         141.5815  141.1448  171.5344 C.3     1  UNL1        0.1636
     12 C         142.0647  140.8022  170.1563 C.3     1  UNL1        0.1231
     13 N         141.4634  138.3675  164.8365 N.pl3   1  UNL1       -0.3160
     14 H         141.8442  137.4883  165.0628 H       1  UNL1        0.1483
     15 C         140.3790  138.4722  163.8055 C.3     1  UNL1        0.1207
     16 C         138.9396  138.3938  164.2204 C.3     1  UNL1        0.1634
     17 O         138.5701  137.7653  165.5314 O.3     1  UNL1       -0.3493
     18 C         137.9378  138.5952  166.6091 C.3     1  UNL1        0.1742
     19 C         144.4470  142.6217  164.8248 C.3     1  UNL1        0.0556
     20 C         144.0856  144.0448  164.5183 C.3     1  UNL1        0.0916
     21 C         140.3643  144.7004  163.6304 C.ar    1  UNL1        0.1377
     22 O         141.4260  144.2962  164.6101 O.2     1  UNL1       -0.4430
     23 C         142.7517  144.3659  163.9118 C.ar    1  UNL1        0.2053
     24 N         142.5095  144.8132  162.5006 N.ar    1  UNL1       -0.2168
     25 C         141.0340  145.0198  162.3267 C.ar    1  UNL1        0.0923
     26 C         140.3486  145.4674  161.0699 C.3     1  UNL1        0.0551
     27 C         138.3939  144.8013  165.3208 C.3     1  UNL1        0.0085
     28 C         138.8916  144.7724  163.9060 C.3     1  UNL1        0.0658
@<TRIPOS>BOND
     1    27    28    1
     2    28    21    1
     3    21    22   ar
     4    22    23   ar
     5    23    20    1
     6    20    19    1
     7    19     1    1
     8     1     2   ar
     9     2     3   ar
    10     3     7    1
    11     7     8    1
    12     8     9    1
    13     9    10    1
    14    10    11    1
    15    11    12    1
    16     3     4   ar
    17     4     5   ar
    18     5    13    1
    19    13    15    1
    20    15    16    1
    21    16    17    1
    22    17    18    1
    23     5     6   ar
    24    23    24   ar
    25    24    25   ar
    26    25    26    1
    27    25    21   ar
    28     6     1   ar
    29    12     7    1
    30    13    14    1
@<TRIPOS>MOLECULE
*****
 28 30 0 0 0
SMALL
GASTEIGER

@<TRIPOS>ATOM
      1 C         140.4778  143.2987  165.2359 C.ar    1  UNL1        0.0621
      2 C         140.4796  142.8245  166.6589 C.ar    1  UNL1        0.0294
      3 C         141.7554  142.3512  167.2901 C.ar    1  UNL1        0.0519
      4 C         143.0293  142.3522  166.4982 C.ar    1  UNL1        0.0486
      5 C         143.0275  142.8265  165.0752 C.ar    1  UNL1        0.1294
      6 N         141.7517  143.2997  164.4440 N.ar    1  UNL1       -0.2351
      7 N         141.7573  141.8770  168.7132 N.pl3   1  UNL1       -0.3027
      8 C         140.7583  142.4262  169.6881 C.3     1  UNL1        0.1231
      9 C         140.7601  141.9520  171.1111 C.3     1  UNL1        0.1636
     10 O         141.7610  140.9286  171.5594 O.3     1  UNL1       -0.3501
     11 C         142.7600  140.3793  170.5845 C.3     1  UNL1        0.1636
     12 C         142.7581  140.8536  169.1614 C.3     1  UNL1        0.1231
     13 N         144.3014  142.8275  164.2833 N.pl3   1  UNL1       -0.3160
     14 H         145.1140  143.2376  164.6586 H       1  UNL1        0.1483
     15 C         144.3374  142.2036  162.9197 C.3     1  UNL1        0.1207
     16 C         144.5655  140.7280  162.7758 C.3     1  UNL1        0.1634
     17 O         145.1484  139.9446  163.9145 O.3     1  UNL1       -0.3493
     18 C         144.2455  139.1961  164.8497 C.3     1  UNL1        0.1742
     19 C         139.2019  143.7719  164.6047 C.3     1  UNL1        0.0556
     20 C         138.0036  142.8704  164.5685 C.3     1  UNL1        0.0916
     21 C         138.6819  139.0660  164.2053 C.ar    1  UNL1        0.1377
     22 O         138.7149  140.3318  165.0096 O.2     1  UNL1       -0.4430
     23 C         138.1569  141.4352  164.1603 C.ar    1  UNL1        0.2053
     24 N         137.7790  140.8514  162.8313 N.ar    1  UNL1       -0.2168
     25 C         138.1035  139.3871  162.8591 C.ar    1  UNL1        0.0923
     26 C         137.8875  138.4148  161.7376 C.3     1  UNL1        0.0551
     27 C         140.6080  137.3816  164.6559 C.3     1  UNL1        0.0085
     28 C         139.1458  137.7161  164.6664 C.3     1  UNL1        0.0658
@<TRIPOS>BOND
     1    27    28    1
     2    28    21    1
     3    21    22   ar
     4    22    23   ar
     5    23    20    1
     6    20    19    1
     7    19     1    1
     8     1     2   ar
     9     2     3   ar
    10     3     7    1
    11     7     8    1
    12     8     9    1
    13     9    10    1
    14    10    11    1
    15    11    12    1
    16     3     4   ar
    17     4     5   ar
    18     5    13    1
    19    13    15    1
    20    15    16    1
    21    16    17    1
    22    17    18    1
    23     5     6   ar
    24    23    24   ar
    25    24    25   ar
    26    25    26    1
    27    25    21   ar
    28     6     1   ar
    29    12     7    1
    30    13    14    1
@<TRIPOS>MOLECULE
*****
 28 30 0 0 0
SMALL
GASTEIGER

@<TRIPOS>ATOM
      1 C         143.9968  142.7804  165.1120 C.ar    1  UNL1        0.0621
      2 C         143.1224  142.3513  166.2527 C.ar    1  UNL1        0.0294
      3 C         142.7854  140.9011  166.4350 C.ar    1  UNL1        0.0519
      4 C         143.3229  139.8800  165.4766 C.ar    1  UNL1        0.0486
      5 C         144.1972  140.3091  164.3359 C.ar    1  UNL1        0.1294
      6 N         144.5342  141.7593  164.1536 N.ar    1  UNL1       -0.2351
      7 N         141.9110  140.4719  167.5757 N.pl3   1  UNL1       -0.3027
      8 C         142.5280  139.9294  168.8307 C.3     1  UNL1        0.1231
      9 C         141.6536  139.5002  169.9715 C.3     1  UNL1        0.1636
     10 O         140.1622  139.6135  169.8572 O.3     1  UNL1       -0.3501
     11 C         139.5453  140.1560  168.6022 C.3     1  UNL1        0.1636
     12 C         140.4197  140.5852  167.4614 C.3     1  UNL1        0.1231
     13 N         144.7347  139.2880  163.3775 N.pl3   1  UNL1       -0.3160
     14 H         145.5585  138.7947  163.5946 H       1  UNL1        0.1483
     15 C         144.0169  139.0185  162.0883 C.3     1  UNL1        0.1207
     16 C         142.9410  137.9747  162.0328 C.3     1  UNL1        0.1634
     17 O         141.6388  138.2014  162.7420 O.3     1  UNL1       -0.3493
     18 C         141.1052  137.1606  163.6812 C.3     1  UNL1        0.1742
     19 C         144.3338  144.2307  164.9296 C.3     1  UNL1        0.0556
     20 C         143.5085  145.0827  164.0115 C.3     1  UNL1        0.0916
     21 C         139.7708  144.1437  163.5495 C.ar    1  UNL1        0.1377
     22 O         140.8818  144.7358  164.3651 O.2     1  UNL1       -0.4430
     23 C         142.1511  144.6175  163.5745 C.ar    1  UNL1        0.2053
     24 N         141.8245  143.9524  162.2703 N.ar    1  UNL1       -0.2168
     25 C         140.3535  143.6596  162.2548 C.ar    1  UNL1        0.0923
     26 C         139.5978  142.9987  161.1404 C.3     1  UNL1        0.0551
     27 C         137.7697  142.7481  164.4428 C.3     1  UNL1        0.0085
     28 C         138.3302  144.0519  163.9570 C.3     1  UNL1        0.0658
@<TRIPOS>BOND
     1    27    28    1
     2    28    21    1
     3    21    22   ar
     4    22    23   ar
     5    23    20    1
     6    20    19    1
     7    19     1    1
     8     1     2   ar
     9     2     3   ar
    10     3     7    1
    11     7     8    1
    12     8     9    1
    13     9    10    1
    14    10    11    1
    15    11    12    1
    16     3     4   ar
    17     4     5   ar
    18     5    13    1
    19    13    15    1
    20    15    16    1
    21    16    17    1
    22    17    18    1
    23     5     6   ar
    24    23    24   ar
    25    24    25   ar
    26    25    26    1
    27    25    21   ar
    28     6     1   ar
    29    12     7    1
    30    13    14    1
@<TRIPOS>MOLECULE
*****
 28 30 0 0 0
SMALL
GASTEIGER

@<TRIPOS>ATOM
      1 C         140.0759  144.4614  163.5382 C.ar    1  UNL1        0.0621
      2 C         141.1258  143.4768  163.9602 C.ar    1  UNL1        0.0294
      3 C         142.2933  143.1943  163.0619 C.ar    1  UNL1        0.0519
      4 C         142.4110  143.8963  161.7416 C.ar    1  UNL1        0.0486
      5 C         141.3610  144.8809  161.3195 C.ar    1  UNL1        0.1294
      6 N         140.1935  145.1635  162.2178 N.ar    1  UNL1       -0.2351
      7 N         143.3434  142.2096  163.4840 N.pl3   1  UNL1       -0.3027
      8 C         142.9435  140.9247  164.1467 C.3     1  UNL1        0.1231
      9 C         143.9934  139.9401  164.5687 C.3     1  UNL1        0.1636
     10 O         145.4433  140.2404  164.3281 O.3     1  UNL1       -0.3501
     11 C         145.8431  141.5253  163.6654 C.3     1  UNL1        0.1636
     12 C         144.7931  142.5099  163.2433 C.3     1  UNL1        0.1231
     13 N         141.4787  145.5830  159.9992 N.pl3   1  UNL1       -0.3160
     14 H         142.2925  146.0934  159.7839 H       1  UNL1        0.1483
     15 C         140.3563  145.5073  159.0069 C.3     1  UNL1        0.1207
     16 C         139.8983  144.1746  158.4929 C.3     1  UNL1        0.1634
     17 O         138.9624  143.3361  159.3122 O.3     1  UNL1       -0.3493
     18 C         139.4149  142.0083  159.8433 C.3     1  UNL1        0.1742
     19 C         138.9082  144.7440  164.4365 C.3     1  UNL1        0.0556
     20 C         137.6864  143.8763  164.3736 C.3     1  UNL1        0.0916
     21 C         138.2582  140.0380  164.2896 C.ar    1  UNL1        0.1377
     22 O         138.2757  141.3497  165.0173 O.2     1  UNL1       -0.4430
     23 C         137.8196  142.4145  164.0643 C.ar    1  UNL1        0.2053
     24 N         137.5202  141.7610  162.7477 N.ar    1  UNL1       -0.2168
     25 C         137.7912  140.2923  162.8870 C.ar    1  UNL1        0.0923
     26 C         137.6246  139.2593  161.8123 C.3     1  UNL1        0.0551
     27 C         139.9868  138.1177  164.5618 C.3     1  UNL1        0.0085
     28 C         138.6405  138.7061  164.8638 C.3     1  UNL1        0.0658
@<TRIPOS>BOND
     1    27    28    1
     2    28    21    1
     3    21    22   ar
     4    22    23   ar
     5    23    20    1
     6    20    19    1
     7    19     1    1
     8     1     2   ar
     9     2     3   ar
    10     3     7    1
    11     7     8    1
    12     8     9    1
    13     9    10    1
    14    10    11    1
    15    11    12    1
    16     3     4   ar
    17     4     5   ar
    18     5    13    1
    19    13    15    1
    20    15    16    1
    21    16    17    1
    22    17    18    1
    23     5     6   ar
    24    23    24   ar
    25    24    25   ar
    26    25    26    1
    27    25    21   ar
    28     6     1   ar
    29    12     7    1
    30    13    14    1
@<TRIPOS>MOLECULE
*****
 28 30 0 0 0
SMALL
GASTEIGER

@<TRIPOS>ATOM
      1 C         139.8940  143.5869  164.2463 C.ar    1  UNL1        0.0621
      2 C         140.4978  142.9063  165.4388 C.ar    1  UNL1        0.0294
      3 C         140.0077  141.5518  165.8572 C.ar    1  UNL1        0.0519
      4 C         138.9139  140.8779  165.0830 C.ar    1  UNL1        0.0486
      5 C         138.3101  141.5585  163.8905 C.ar    1  UNL1        0.1294
      6 N         138.8002  142.9130  163.4722 N.ar    1  UNL1       -0.2351
      7 N         140.6115  140.8711  167.0498 N.pl3   1  UNL1       -0.3027
      8 C         139.8571  140.8188  168.3452 C.3     1  UNL1        0.1231
      9 C         140.4609  140.1382  169.5378 C.3     1  UNL1        0.1636
     10 O         141.8191  139.5098  169.4349 O.3     1  UNL1       -0.3501
     11 C         142.5735  139.5621  168.1395 C.3     1  UNL1        0.1636
     12 C         141.9697  140.2427  166.9469 C.3     1  UNL1        0.1231
     13 N         137.2163  140.8846  163.1163 N.pl3   1  UNL1       -0.3160
     14 H         136.3566  140.6837  163.5521 H       1  UNL1        0.1483
     15 C         137.4322  140.5167  161.6783 C.3     1  UNL1        0.1207
     16 C         138.2082  139.2816  161.3285 C.3     1  UNL1        0.1634
     17 O         138.0067  138.0210  162.1162 O.3     1  UNL1       -0.3493
     18 C         138.9895  137.6379  163.1826 C.3     1  UNL1        0.1742
     19 C         140.3841  144.9415  163.8279 C.3     1  UNL1        0.0556
     20 C         141.8438  145.2731  163.9224 C.3     1  UNL1        0.0916
     21 C         144.6399  142.6890  163.1673 C.ar    1  UNL1        0.1377
     22 O         143.7950  143.4589  164.1387 O.2     1  UNL1       -0.4430
     23 C         142.8648  144.3339  163.3518 C.ar    1  UNL1        0.2053
     24 N         143.1348  144.1048  161.8942 N.ar    1  UNL1       -0.2168
     25 C         144.2319  143.0882  161.7802 C.ar    1  UNL1        0.0923
     26 C         144.8180  142.5631  160.5033 C.3     1  UNL1        0.0551
     27 C         145.3245  140.3290  164.0111 C.3     1  UNL1        0.0085
     28 C         145.7057  141.6945  163.5211 C.3     1  UNL1        0.0658
@<TRIPOS>BOND
     1    27    28    1
     2    28    21    1
     3    21    22   ar
     4    22    23   ar
     5    23    20    1
     6    20    19    1
     7    19     1    1
     8     1     2   ar
     9     2     3   ar
    10     3     7    1
    11     7     8    1
    12     8     9    1
    13     9    10    1
    14    10    11    1
    15    11    12    1
    16     3     4   ar
    17     4     5   ar
    18     5    13    1
    19    13    15    1
    20    15    16    1
    21    16    17    1
    22    17    18    1
    23     5     6   ar
    24    23    24   ar
    25    24    25   ar
    26    25    26    1
    27    25    21   ar
    28     6     1   ar
    29    12     7    1
    30    13    14    1
@<TRIPOS>MOLECULE
*****
 28 30 0 0 0
SMALL
GASTEIGER

@<TRIPOS>ATOM
      1 C         143.1736  142.5463  165.0048 C.ar    1  UNL1        0.0621
      2 C         142.5722  142.1837  166.3302 C.ar    1  UNL1        0.0294
      3 C         141.1384  142.5159  166.6192 C.ar    1  UNL1        0.0519
      4 C         140.3059  143.2107  165.5828 C.ar    1  UNL1        0.0486
      5 C         140.9072  143.5734  164.2573 C.ar    1  UNL1        0.1294
      6 N         142.3411  143.2412  163.9683 N.ar    1  UNL1       -0.2351
      7 N         140.5369  142.1533  167.9447 N.pl3   1  UNL1       -0.3027
      8 C         139.9577  140.7859  168.1565 C.3     1  UNL1        0.1231
      9 C         139.3563  140.4232  169.4819 C.3     1  UNL1        0.1636
     10 O         139.3340  141.4280  170.5955 O.3     1  UNL1       -0.3501
     11 C         139.9131  142.7953  170.3837 C.3     1  UNL1        0.1636
     12 C         140.5146  143.1580  169.0582 C.3     1  UNL1        0.1231
     13 N         140.0748  144.2682  163.2209 N.pl3   1  UNL1       -0.3160
     14 H         140.1360  145.2450  163.1142 H       1  UNL1        0.1483
     15 C         139.1490  143.4748  162.3472 C.3     1  UNL1        0.1207
     16 C         137.7137  143.2947  162.7439 C.3     1  UNL1        0.1634
     17 O         137.3073  142.1120  163.5723 O.3     1  UNL1       -0.3493
     18 C         138.1011  140.8410  163.5051 C.3     1  UNL1        0.1742
     19 C         144.6076  142.2141  164.7157 C.3     1  UNL1        0.0556
     20 C         144.9827  140.8304  164.2747 C.3     1  UNL1        0.0916
     21 C         142.1598  138.1858  163.9529 C.ar    1  UNL1        0.1377
     22 O         143.1037  138.9998  164.7877 O.2     1  UNL1       -0.4430
     23 C         143.9159  139.8589  163.8645 C.ar    1  UNL1        0.2053
     24 N         143.4741  139.5760  162.4593 N.ar    1  UNL1       -0.2168
     25 C         142.3888  138.5420  162.5138 C.ar    1  UNL1        0.0923
     26 C         141.6604  137.9655  161.3362 C.3     1  UNL1        0.0551
     27 C         139.7590  137.6242  164.7718 C.3     1  UNL1        0.0085
     28 C         141.1622  137.1906  164.4668 C.3     1  UNL1        0.0658
@<TRIPOS>BOND
     1    27    28    1
     2    28    21    1
     3    21    22   ar
     4    22    23   ar
     5    23    20    1
     6    20    19    1
     7    19     1    1
     8     1     2   ar
     9     2     3   ar
    10     3     7    1
    11     7     8    1
    12     8     9    1
    13     9    10    1
    14    10    11    1
    15    11    12    1
    16     3     4   ar
    17     4     5   ar
    18     5    13    1
    19    13    15    1
    20    15    16    1
    21    16    17    1
    22    17    18    1
    23     5     6   ar
    24    23    24   ar
    25    24    25   ar
    26    25    26    1
    27    25    21   ar
    28     6     1   ar
    29    12     7    1
    30    13    14    1
@<TRIPOS>MOLECULE
*****
 28 30 0 0 0
SMALL
GASTEIGER

@<TRIPOS>ATOM
      1 C         143.0289  141.0034  164.3705 C.ar    1  UNL1        0.0621
      2 C         142.9034  141.2172  165.8499 C.ar    1  UNL1        0.0294
      3 C         141.9915  142.2843  166.3787 C.ar    1  UNL1        0.0519
      4 C         141.2050  143.1375  165.4283 C.ar    1  UNL1        0.0486
      5 C         141.3304  142.9237  163.9489 C.ar    1  UNL1        0.1294
      6 N         142.2423  141.8567  163.4201 N.ar    1  UNL1       -0.2351
      7 N         141.8661  142.4981  167.8582 N.pl3   1  UNL1       -0.3027
      8 C         143.0512  142.2781  168.7509 C.3     1  UNL1        0.1231
      9 C         142.9258  142.4919  170.2303 C.3     1  UNL1        0.1636
     10 O         141.6152  142.9258  170.8169 O.3     1  UNL1       -0.3501
     11 C         140.4300  143.1458  169.9242 C.3     1  UNL1        0.1636
     12 C         140.5555  142.9320  168.4448 C.3     1  UNL1        0.1231
     13 N         140.5439  143.7769  162.9985 N.pl3   1  UNL1       -0.3160
     14 H         140.9401  144.0512  162.1400 H       1  UNL1        0.1483
     15 C         139.1537  144.2123  163.3560 C.3     1  UNL1        0.1207
     16 C         137.9822  143.3439  163.0048 C.3     1  UNL1        0.1634
     17 O         137.6637  143.0597  161.5668 O.3     1  UNL1       -0.3493
     18 C         138.2039  141.8246  160.9089 C.3     1  UNL1        0.1742
     19 C         143.9408  139.9364  163.8416 C.3     1  UNL1        0.0556
     20 C         143.3885  138.5898  163.4789 C.3     1  UNL1        0.0916
     21 C         139.7268  137.8197  164.5110 C.ar    1  UNL1        0.1377
     22 O         141.1744  138.0056  164.8579 O.2     1  UNL1       -0.4430
     23 C         141.9161  138.3271  163.5944 C.ar    1  UNL1        0.2053
     24 N         140.9272  138.3399  162.4666 N.ar    1  UNL1       -0.2168
     25 C         139.5741  138.0263  163.0331 C.ar    1  UNL1        0.0923
     26 C         138.2933  137.9353  162.2579 C.3     1  UNL1        0.0551
     27 C         138.0711  138.5474  166.3762 C.3     1  UNL1        0.0085
     28 C         138.6255  137.4858  165.4730 C.3     1  UNL1        0.0658
@<TRIPOS>BOND
     1    27    28    1
     2    28    21    1
     3    21    22   ar
     4    22    23   ar
     5    23    20    1
     6    20    19    1
     7    19     1    1
     8     1     2   ar
     9     2     3   ar
    10     3     7    1
    11     7     8    1
    12     8     9    1
    13     9    10    1
    14    10    11    1
    15    11    12    1
    16     3     4   ar
    17     4     5   ar
    18     5    13    1
    19    13    15    1
    20    15    16    1
    21    16    17    1
    22    17    18    1
    23     5     6   ar
    24    23    24   ar
    25    24    25   ar
    26    25    26    1
    27    25    21   ar
    28     6     1   ar
    29    12     7    1
    30    13    14    1
@<TRIPOS>MOLECULE
*****
 28 30 0 0 0
SMALL
GASTEIGER

@<TRIPOS>ATOM
      1 C         142.4732  139.3212  165.5469 C.ar    1  UNL1        0.0621
      2 C         142.3078  139.9568  166.8954 C.ar    1  UNL1        0.0294
      3 C         140.9568  140.4345  167.3388 C.ar    1  UNL1        0.0519
      4 C         139.7712  140.2765  166.4336 C.ar    1  UNL1        0.0486
      5 C         139.9366  139.6409  165.0851 C.ar    1  UNL1        0.1294
      6 N         141.2876  139.1632  164.6417 N.ar    1  UNL1       -0.2351
      7 N         140.7914  141.0701  168.6874 N.pl3   1  UNL1       -0.3027
      8 C         140.4331  142.5229  168.7929 C.3     1  UNL1        0.1231
      9 C         140.2677  143.1585  170.1414 C.3     1  UNL1        0.1636
     10 O         140.4605  142.3414  171.3845 O.3     1  UNL1       -0.3501
     11 C         140.8188  140.8886  171.2790 C.3     1  UNL1        0.1636
     12 C         140.9842  140.2530  169.9304 C.3     1  UNL1        0.1231
     13 N         138.7509  139.4829  164.1799 N.pl3   1  UNL1       -0.3160
     14 H         138.5309  138.5988  163.8068 H       1  UNL1        0.1483
     15 C         137.9007  140.6719  163.8433 C.3     1  UNL1        0.1207
     16 C         138.2516  141.5365  162.6688 C.3     1  UNL1        0.1634
     17 O         137.4322  142.7552  162.3633 O.3     1  UNL1       -0.3493
     18 C         137.7411  144.0563  163.0429 C.3     1  UNL1        0.1742
     19 C         143.8242  138.8435  165.1035 C.3     1  UNL1        0.0556
     20 C         144.7963  139.8072  164.4900 C.3     1  UNL1        0.0916
     21 C         143.3190  142.8135  162.5290 C.ar    1  UNL1        0.1377
     22 O         143.6232  141.3495  162.6487 O.2     1  UNL1       -0.4430
     23 C         144.3133  141.1254  163.9616 C.ar    1  UNL1        0.2053
     24 N         144.4358  142.4508  164.6531 N.ar    1  UNL1       -0.2168
     25 C         143.8213  143.4941  163.7678 C.ar    1  UNL1        0.0923
     26 C         143.7258  144.9605  164.0684 C.3     1  UNL1        0.0551
     27 C         141.1636  143.7732  161.4411 C.3     1  UNL1        0.0085
     28 C         142.6331  143.4799  161.3733 C.3     1  UNL1        0.0658
@<TRIPOS>BOND
     1    27    28    1
     2    28    21    1
     3    21    22   ar
     4    22    23   ar
     5    23    20    1
     6    20    19    1
     7    19     1    1
     8     1     2   ar
     9     2     3   ar
    10     3     7    1
    11     7     8    1
    12     8     9    1
    13     9    10    1
    14    10    11    1
    15    11    12    1
    16     3     4   ar
    17     4     5   ar
    18     5    13    1
    19    13    15    1
    20    15    16    1
    21    16    17    1
    22    17    18    1
    23     5     6   ar
    24    23    24   ar
    25    24    25   ar
    26    25    26    1
    27    25    21   ar
    28     6     1   ar
    29    12     7    1
    30    13    14    1
