@<TRIPOS>MOLECULE
*****
 36 39 0 0 0
SMALL
GASTEIGER

@<TRIPOS>ATOM
      1 C         142.5850  140.3162  165.1795 C.3     1  UNL1        0.0545
      2 C         141.6708  140.3904  166.3664 C.3     1  UNL1        0.0162
      3 C         140.4646  139.5474  166.0758 C.3     1  UNL1        0.0100
      4 C         140.6333  138.9522  164.7093 C.3     1  UNL1        0.0704
      5 C         141.9438  139.4273  164.1554 C.3     1  UNL1        0.0243
      6 C         140.5233  138.2260  163.4015 C.2     1  UNL1        0.2248
      7 O         140.9877  136.8039  163.2918 O.2     1  UNL1       -0.2749
      8 N         139.9488  138.9218  162.2032 N.am    1  UNL1       -0.2760
      9 C         139.4844  140.3438  162.3129 C.3     1  UNL1        0.1149
     10 C         138.9099  141.0397  161.1147 C.3     1  UNL1        0.1151
     11 N         138.7998  140.3136  159.8068 N.pl3   1  UNL1       -0.2747
     12 C         139.2643  138.8915  159.6971 C.3     1  UNL1        0.1151
     13 C         139.8388  138.1956  160.8953 C.3     1  UNL1        0.1149
     14 C         138.2254  141.0095  158.6086 C.ar    1  UNL1        0.2202
     15 N         138.8162  142.3058  158.1392 N.ar    1  UNL1       -0.2121
     16 C         138.2417  143.0017  156.9410 C.ar    1  UNL1        0.1033
     17 C         137.0763  142.4012  156.2122 C.ar    1  UNL1        0.0439
     18 C         136.4854  141.1048  156.6815 C.ar    1  UNL1        0.1570
     19 N         137.0599  140.4089  157.8797 N.ar    1  UNL1       -0.2096
     20 C         135.3201  140.5043  155.9526 C.3     1  UNL1        0.4350
     21 F         134.1547  139.9039  155.2237 F       1  UNL1       -0.1644
     22 F         134.6719  140.1710  157.2636 F       1  UNL1       -0.1644
     23 F         135.9682  140.8377  154.6416 F       1  UNL1       -0.1644
     24 C         139.2999  138.3253  164.9899 C.3     1  UNL1        0.0082
     25 C         138.1565  139.1737  165.4621 C.3     1  UNL1        0.0005
     26 C         138.9517  137.4062  164.9369 C.3     1  UNL1        0.0005
     27 N         143.9081  141.0092  165.0410 N.3     1  UNL1       -0.2975
     28 H         144.1895  141.2965  165.9783 H       1  UNL1        0.1232
     29 C         144.4810  142.0667  162.7381 C.3     1  UNL1        0.1591
     30 C         144.6061  143.2755  161.8588 C.3     1  UNL1        0.1729
     31 O         144.2834  144.6355  162.4031 O.3     1  UNL1       -0.3511
     32 C         143.8356  144.7868  163.8266 C.3     1  UNL1        0.1437
     33 C         143.7105  143.5780  164.7059 C.3     1  UNL1        0.0503
     34 C         144.0332  142.2180  164.1616 C.3     1  UNL1        0.0865
     35 C         143.9364  140.0988  161.1317 C.3     1  UNL1        0.1742
     36 O         144.8037  140.7067  162.1938 O.3     1  UNL1       -0.3496
@<TRIPOS>BOND
     1    35    36    1
     2    29    36    1
     3    29    30    1
     4    30    31    1
     5    31    32    1
     6    32    33    1
     7    33    34    1
     8    34    27    1
     9     1    27    1
    10     1     2    1
    11     2     3    1
    12     3     4    1
    13     4     6    1
    14     6     7    2
    15     6     8   am
    16     8     9    1
    17     9    10    1
    18    10    11    1
    19    11    14    1
    20    14    15   ar
    21    15    16   ar
    22    16    17   ar
    23    17    18   ar
    24    18    20    1
    25    20    21    1
    26    20    22    1
    27    20    23    1
    28    18    19   ar
    29    11    12    1
    30    12    13    1
    31     4    24    1
    32    24    25    1
    33    24    26    1
    34     4     5    1
    35    34    29    1
    36     5     1    1
    37    13     8    1
    38    19    14   ar
    39    27    28    1
@<TRIPOS>MOLECULE
*****
 36 39 0 0 0
SMALL
GASTEIGER

@<TRIPOS>ATOM
      1 C         141.3308  142.3690  164.5268 C.3     1  UNL1        0.0545
      2 C         142.1735  143.6000  164.3700 C.3     1  UNL1        0.0162
      3 C         143.5236  143.1771  163.8716 C.3     1  UNL1        0.0100
      4 C         143.5154  141.6848  163.7204 C.3     1  UNL1        0.0704
      5 C         142.1601  141.1854  164.1254 C.3     1  UNL1        0.0243
      6 C         143.8030  140.2334  163.4739 C.2     1  UNL1        0.2248
      7 O         144.4801  139.4128  164.5312 O.2     1  UNL1       -0.2749
      8 N         143.4134  139.6027  162.1698 N.am    1  UNL1       -0.2760
      9 C         142.7363  140.4233  161.1125 C.3     1  UNL1        0.1149
     10 C         142.3468  139.7926  159.8084 C.3     1  UNL1        0.1151
     11 N         142.6343  138.3413  159.5618 N.pl3   1  UNL1       -0.2747
     12 C         143.3114  137.5206  160.6191 C.3     1  UNL1        0.1151
     13 C         143.7010  138.1513  161.9231 C.3     1  UNL1        0.1149
     14 C         142.2448  137.7106  158.2577 C.ar    1  UNL1        0.2202
     15 N         141.1050  138.2748  157.4626 N.ar    1  UNL1       -0.2121
     16 C         140.7154  137.6442  156.1585 C.ar    1  UNL1        0.1033
     17 C         141.4658  136.4492  155.6497 C.ar    1  UNL1        0.0439
     18 C         142.6057  135.8849  156.4449 C.ar    1  UNL1        0.1570
     19 N         142.9952  136.5156  157.7489 N.ar    1  UNL1       -0.2096
     20 C         143.3560  134.6899  155.9360 C.3     1  UNL1        0.4350
     21 F         144.1063  133.4949  155.4271 F       1  UNL1       -0.1644
     22 F         144.4471  135.5886  155.4343 F       1  UNL1       -0.1644
     23 F         142.2649  133.7911  156.4377 F       1  UNL1       -0.1644
     24 C         144.9306  141.8808  163.2640 C.3     1  UNL1        0.0082
     25 C         145.2088  142.5252  161.9383 C.3     1  UNL1        0.0005
     26 C         145.8099  141.6724  163.6541 C.3     1  UNL1        0.0005
     27 N         139.9085  142.3287  165.0017 N.3     1  UNL1       -0.2975
     28 H         139.7400  143.2019  165.5012 H       1  UNL1        0.1232
     29 C         138.4431  140.2223  165.4085 C.3     1  UNL1        0.1591
     30 C         137.9839  139.1133  166.3081 C.3     1  UNL1        0.1729
     31 O         138.5309  139.0017  167.7004 O.3     1  UNL1       -0.3511
     32 C         139.5371  139.9991  168.1930 C.3     1  UNL1        0.1437
     33 C         139.9962  141.1081  167.2935 C.3     1  UNL1        0.0503
     34 C         139.4493  141.2197  165.9012 C.3     1  UNL1        0.0865
     35 C         138.4447  139.4656  162.9231 C.3     1  UNL1        0.1742
     36 O         137.8961  140.3339  164.0163 O.3     1  UNL1       -0.3496
@<TRIPOS>BOND
     1    35    36    1
     2    29    36    1
     3    29    30    1
     4    30    31    1
     5    31    32    1
     6    32    33    1
     7    33    34    1
     8    34    27    1
     9     1    27    1
    10     1     2    1
    11     2     3    1
    12     3     4    1
    13     4     6    1
    14     6     7    2
    15     6     8   am
    16     8     9    1
    17     9    10    1
    18    10    11    1
    19    11    14    1
    20    14    15   ar
    21    15    16   ar
    22    16    17   ar
    23    17    18   ar
    24    18    20    1
    25    20    21    1
    26    20    22    1
    27    20    23    1
    28    18    19   ar
    29    11    12    1
    30    12    13    1
    31     4    24    1
    32    24    25    1
    33    24    26    1
    34     4     5    1
    35    34    29    1
    36     5     1    1
    37    13     8    1
    38    19    14   ar
    39    27    28    1
@<TRIPOS>MOLECULE
*****
 36 39 0 0 0
SMALL
GASTEIGER

@<TRIPOS>ATOM
      1 C         140.4019  141.0810  160.1978 C.3     1  UNL1        0.0545
      2 C         141.5683  140.8365  159.2869 C.3     1  UNL1        0.0162
      3 C         142.3906  139.7279  159.8741 C.3     1  UNL1        0.0100
      4 C         141.7325  139.2872  161.1479 C.3     1  UNL1        0.0704
      5 C         140.5034  140.1235  161.3479 C.3     1  UNL1        0.0243
      6 C         141.3129  138.6437  162.4362 C.2     1  UNL1        0.2248
      7 O         140.6999  137.2747  162.4260 O.2     1  UNL1       -0.2749
      8 N         141.5062  139.3691  163.7348 N.am    1  UNL1       -0.2760
      9 C         142.1192  140.7381  163.7450 C.3     1  UNL1        0.1149
     10 C         142.3126  141.4636  165.0436 C.3     1  UNL1        0.1151
     11 N         141.8931  140.8201  166.3320 N.pl3   1  UNL1       -0.2747
     12 C         141.2801  139.4511  166.3217 C.3     1  UNL1        0.1151
     13 C         141.0867  138.7256  165.0232 C.3     1  UNL1        0.1149
     14 C         142.0865  141.5456  167.6305 C.ar    1  UNL1        0.2202
     15 N         143.4712  141.8220  168.1362 N.ar    1  UNL1       -0.2121
     16 C         143.6647  142.5475  169.4348 C.ar    1  UNL1        0.1033
     17 C         142.4731  142.9966  170.2276 C.ar    1  UNL1        0.0439
     18 C         141.0883  142.7202  169.7219 C.ar    1  UNL1        0.1570
     19 N         140.8949  141.9947  168.4234 N.ar    1  UNL1       -0.2096
     20 C         139.8968  143.1693  170.5148 C.3     1  UNL1        0.4350
     21 F         138.7053  143.6185  171.3077 F       1  UNL1       -0.1644
     22 F         139.4820  141.7399  170.7011 F       1  UNL1       -0.1644
     23 F         140.3116  144.5987  170.3285 F       1  UNL1       -0.1644
     24 C         142.8738  138.3165  161.2172 C.3     1  UNL1        0.0082
     25 C         143.0823  137.3238  160.1121 C.3     1  UNL1        0.0005
     26 C         143.5915  138.1505  161.8699 C.3     1  UNL1        0.0005
     27 N         139.3233  142.1034  159.9942 N.3     1  UNL1       -0.2975
     28 H         139.4904  142.5302  159.0830 H       1  UNL1        0.1232
     29 C         138.1523  143.1162  162.0806 C.3     1  UNL1        0.1591
     30 C         137.9889  144.2393  163.0613 C.3     1  UNL1        0.1729
     31 O         138.8332  145.4729  162.9364 O.3     1  UNL1       -0.3511
     32 C         139.8408  145.5833  161.8308 C.3     1  UNL1        0.1437
     33 C         140.0042  144.4601  160.8501 C.3     1  UNL1        0.0503
     34 C         139.1599  143.2266  160.9750 C.3     1  UNL1        0.0865
     35 C         137.5431  140.9241  163.3351 C.3     1  UNL1        0.1742
     36 O         137.3080  141.8826  162.2055 O.3     1  UNL1       -0.3496
@<TRIPOS>BOND
     1    35    36    1
     2    29    36    1
     3    29    30    1
     4    30    31    1
     5    31    32    1
     6    32    33    1
     7    33    34    1
     8    34    27    1
     9     1    27    1
    10     1     2    1
    11     2     3    1
    12     3     4    1
    13     4     6    1
    14     6     7    2
    15     6     8   am
    16     8     9    1
    17     9    10    1
    18    10    11    1
    19    11    14    1
    20    14    15   ar
    21    15    16   ar
    22    16    17   ar
    23    17    18   ar
    24    18    20    1
    25    20    21    1
    26    20    22    1
    27    20    23    1
    28    18    19   ar
    29    11    12    1
    30    12    13    1
    31     4    24    1
    32    24    25    1
    33    24    26    1
    34     4     5    1
    35    34    29    1
    36     5     1    1
    37    13     8    1
    38    19    14   ar
    39    27    28    1
@<TRIPOS>MOLECULE
*****
 36 39 0 0 0
SMALL
GASTEIGER

@<TRIPOS>ATOM
      1 C         141.9383  140.4933  166.7597 C.3     1  UNL1        0.0545
      2 C         142.6157  139.1723  166.5452 C.3     1  UNL1        0.0162
      3 C         141.7710  138.3656  165.6040 C.3     1  UNL1        0.0100
      4 C         140.5716  139.1882  165.2367 C.3     1  UNL1        0.0704
      5 C         140.6750  140.5031  165.9510 C.3     1  UNL1        0.0243
      6 C         139.2948  139.7608  164.6966 C.2     1  UNL1        0.2248
      7 O         138.0207  139.6193  165.4754 O.2     1  UNL1       -0.2749
      8 N         139.2921  140.4752  163.3776 N.am    1  UNL1       -0.2760
      9 C         140.5663  140.6168  162.5988 C.3     1  UNL1        0.1149
     10 C         140.5637  141.3311  161.2798 C.3     1  UNL1        0.1151
     11 N         139.2869  141.9038  160.7396 N.pl3   1  UNL1       -0.2747
     12 C         138.0128  141.7622  161.5183 C.3     1  UNL1        0.1151
     13 C         138.0154  141.0479  162.8373 C.3     1  UNL1        0.1149
     14 C         139.2843  142.6181  159.4206 C.ar    1  UNL1        0.2202
     15 N         138.2475  142.2849  158.3892 N.ar    1  UNL1       -0.2121
     16 C         138.2449  142.9992  157.0702 C.ar    1  UNL1        0.1033
     17 C         139.2792  144.0468  156.7826 C.ar    1  UNL1        0.0439
     18 C         140.3161  144.3801  157.8140 C.ar    1  UNL1        0.1570
     19 N         140.3187  143.6658  159.1330 N.ar    1  UNL1       -0.2096
     20 C         141.3503  145.4277  157.5264 C.3     1  UNL1        0.4350
     21 F         142.3846  146.4753  157.2388 F       1  UNL1       -0.1644
     22 F         142.0509  145.0881  158.8085 F       1  UNL1       -0.1644
     23 F         140.6498  145.7673  156.2443 F       1  UNL1       -0.1644
     24 C         140.2013  137.9930  164.4096 C.3     1  UNL1        0.0082
     25 C         141.2278  137.3419  163.5306 C.3     1  UNL1        0.0005
     26 C         139.3722  137.4772  164.2862 C.3     1  UNL1        0.0005
     27 N         142.4367  141.6087  167.6300 N.3     1  UNL1       -0.2975
     28 H         143.4146  141.4058  167.8375 H       1  UNL1        0.1232
     29 C         142.1198  141.0882  170.1556 C.3     1  UNL1        0.1591
     30 C         141.4491  141.3735  171.4666 C.3     1  UNL1        0.1729
     31 O         140.4245  142.4648  171.5629 O.3     1  UNL1       -0.3511
     32 C         140.0707  143.2708  170.3484 C.3     1  UNL1        0.1437
     33 C         140.7414  142.9854  169.0374 C.3     1  UNL1        0.0503
     34 C         141.7660  141.8941  168.9410 C.3     1  UNL1        0.0865
     35 C         142.7184  138.5602  170.1253 C.3     1  UNL1        0.1742
     36 O         143.1444  139.9969  170.0592 O.3     1  UNL1       -0.3496
@<TRIPOS>BOND
     1    35    36    1
     2    29    36    1
     3    29    30    1
     4    30    31    1
     5    31    32    1
     6    32    33    1
     7    33    34    1
     8    34    27    1
     9     1    27    1
    10     1     2    1
    11     2     3    1
    12     3     4    1
    13     4     6    1
    14     6     7    2
    15     6     8   am
    16     8     9    1
    17     9    10    1
    18    10    11    1
    19    11    14    1
    20    14    15   ar
    21    15    16   ar
    22    16    17   ar
    23    17    18   ar
    24    18    20    1
    25    20    21    1
    26    20    22    1
    27    20    23    1
    28    18    19   ar
    29    11    12    1
    30    12    13    1
    31     4    24    1
    32    24    25    1
    33    24    26    1
    34     4     5    1
    35    34    29    1
    36     5     1    1
    37    13     8    1
    38    19    14   ar
    39    27    28    1
@<TRIPOS>MOLECULE
*****
 36 39 0 0 0
SMALL
GASTEIGER

@<TRIPOS>ATOM
      1 C         141.7019  142.5178  165.1856 C.3     1  UNL1        0.0545
      2 C         142.5690  141.8071  166.1820 C.3     1  UNL1        0.0162
      3 C         143.8407  141.4121  165.4915 C.3     1  UNL1        0.0100
      4 C         143.7596  141.8788  164.0683 C.3     1  UNL1        0.0704
      5 C         142.4378  142.5622  163.8792 C.3     1  UNL1        0.0243
      6 C         143.9637  142.2175  162.6214 C.2     1  UNL1        0.2248
      7 O         144.6213  143.5103  162.2392 O.2     1  UNL1       -0.2749
      8 N         143.5102  141.2632  161.5566 N.am    1  UNL1       -0.2760
      9 C         142.8526  139.9704  161.9388 C.3     1  UNL1        0.1149
     10 C         142.3990  139.0161  160.8740 C.3     1  UNL1        0.1151
     11 N         142.6031  139.3547  159.4271 N.pl3   1  UNL1       -0.2747
     12 C         143.2607  140.6475  159.0449 C.3     1  UNL1        0.1151
     13 C         143.7142  141.6018  160.1096 C.3     1  UNL1        0.1149
     14 C         142.1495  138.4004  158.3623 C.ar    1  UNL1        0.2202
     15 N         140.8027  138.5726  157.7251 N.ar    1  UNL1       -0.2121
     16 C         140.3491  137.6183  156.6604 C.ar    1  UNL1        0.1033
     17 C         141.2426  136.4919  156.2329 C.ar    1  UNL1        0.0439
     18 C         142.5895  136.3196  156.8701 C.ar    1  UNL1        0.1570
     19 N         143.0430  137.2739  157.9349 N.ar    1  UNL1       -0.2096
     20 C         143.4829  135.1931  156.4426 C.3     1  UNL1        0.4350
     21 F         144.3763  134.0666  156.0151 F       1  UNL1       -0.1644
     22 F         143.9650  136.0151  155.2842 F       1  UNL1       -0.1644
     23 F         143.0007  134.3711  157.6010 F       1  UNL1       -0.1644
     24 C         145.1241  141.2663  163.9549 C.3     1  UNL1        0.0082
     25 C         145.3299  139.8228  164.3072 C.3     1  UNL1        0.0005
     26 C         146.0058  141.6068  163.6804 C.3     1  UNL1        0.0005
     27 N         140.3384  143.0847  165.4492 N.3     1  UNL1       -0.2975
     28 H         140.0517  142.7470  166.3679 H       1  UNL1        0.1232
     29 C         138.7528  143.8347  163.5325 C.3     1  UNL1        0.1591
     30 C         137.6231  143.5398  162.5908 C.3     1  UNL1        0.1729
     31 O         136.9493  142.2001  162.6240 O.3     1  UNL1       -0.3511
     32 C         137.4052  141.1552  163.5989 C.3     1  UNL1        0.1437
     33 C         138.5349  141.4501  164.5406 C.3     1  UNL1        0.0503
     34 C         139.2087  142.7899  164.5074 C.3     1  UNL1        0.0865
     35 C         140.5218  145.4388  162.5091 C.3     1  UNL1        0.1742
     36 O         139.4266  145.1744  163.4993 O.3     1  UNL1       -0.3496
@<TRIPOS>BOND
     1    35    36    1
     2    29    36    1
     3    29    30    1
     4    30    31    1
     5    31    32    1
     6    32    33    1
     7    33    34    1
     8    34    27    1
     9     1    27    1
    10     1     2    1
    11     2     3    1
    12     3     4    1
    13     4     6    1
    14     6     7    2
    15     6     8   am
    16     8     9    1
    17     9    10    1
    18    10    11    1
    19    11    14    1
    20    14    15   ar
    21    15    16   ar
    22    16    17   ar
    23    17    18   ar
    24    18    20    1
    25    20    21    1
    26    20    22    1
    27    20    23    1
    28    18    19   ar
    29    11    12    1
    30    12    13    1
    31     4    24    1
    32    24    25    1
    33    24    26    1
    34     4     5    1
    35    34    29    1
    36     5     1    1
    37    13     8    1
    38    19    14   ar
    39    27    28    1
@<TRIPOS>MOLECULE
*****
 36 39 0 0 0
SMALL
GASTEIGER

@<TRIPOS>ATOM
      1 C         141.9495  140.5139  166.7508 C.3     1  UNL1        0.0545
      2 C         142.6527  139.2087  166.5227 C.3     1  UNL1        0.0162
      3 C         141.8187  138.3910  165.5816 C.3     1  UNL1        0.0100
      4 C         140.6000  139.1908  165.2280 C.3     1  UNL1        0.0704
      5 C         140.6808  140.5028  165.9507 C.3     1  UNL1        0.0243
      6 C         139.3079  139.7404  164.7004 C.2     1  UNL1        0.2248
      7 O         138.0451  139.5808  165.4941 O.2     1  UNL1       -0.2749
      8 N         139.2785  140.4495  163.3789 N.am    1  UNL1       -0.2760
      9 C         140.5412  140.6091  162.5852 C.3     1  UNL1        0.1149
     10 C         140.5119  141.3183  161.2637 C.3     1  UNL1        0.1151
     11 N         139.2198  141.8679  160.7360 N.pl3   1  UNL1       -0.2747
     12 C         137.9571  141.7083  161.5297 C.3     1  UNL1        0.1151
     13 C         137.9864  140.9991  162.8512 C.3     1  UNL1        0.1149
     14 C         139.1905  142.5770  159.4145 C.ar    1  UNL1        0.2202
     15 N         140.2578  143.5747  159.0749 N.ar    1  UNL1       -0.2121
     16 C         140.2285  144.2838  157.7534 C.ar    1  UNL1        0.1033
     17 C         139.1317  143.9953  156.7717 C.ar    1  UNL1        0.0439
     18 C         138.0644  142.9976  157.1113 C.ar    1  UNL1        0.1570
     19 N         138.0937  142.2884  158.4327 N.ar    1  UNL1       -0.2096
     20 C         136.9677  142.7091  156.1294 C.3     1  UNL1        0.4350
     21 F         135.8710  142.4206  155.1476 F       1  UNL1       -0.1644
     22 F         136.6159  141.4639  156.8883 F       1  UNL1       -0.1644
     23 F         137.3195  143.9542  155.3706 F       1  UNL1       -0.1644
     24 C         140.2490  137.9938  164.3951 C.3     1  UNL1        0.0082
     25 C         141.2842  137.3674  163.5084 C.3     1  UNL1        0.0005
     26 C         139.4293  137.4632  164.2717 C.3     1  UNL1        0.0005
     27 N         142.4305  141.6335  167.6255 N.3     1  UNL1       -0.2975
     28 H         143.4109  141.4443  167.8336 H       1  UNL1        0.1232
     29 C         142.1125  141.0945  170.1471 C.3     1  UNL1        0.1591
     30 C         141.4360  141.3656  171.4582 C.3     1  UNL1        0.1729
     31 O         140.4012  142.4467  171.5588 O.3     1  UNL1       -0.3511
     32 C         140.0427  143.2568  170.3484 C.3     1  UNL1        0.1437
     33 C         140.7191  142.9857  169.0373 C.3     1  UNL1        0.0503
     34 C         141.7540  141.9046  168.9367 C.3     1  UNL1        0.0865
     35 C         142.7367  138.5726  170.1222 C.3     1  UNL1        0.1742
     36 O         143.1473  140.0133  170.0465 O.3     1  UNL1       -0.3496
@<TRIPOS>BOND
     1    35    36    1
     2    29    36    1
     3    29    30    1
     4    30    31    1
     5    31    32    1
     6    32    33    1
     7    33    34    1
     8    34    27    1
     9     1    27    1
    10     1     2    1
    11     2     3    1
    12     3     4    1
    13     4     6    1
    14     6     7    2
    15     6     8   am
    16     8     9    1
    17     9    10    1
    18    10    11    1
    19    11    14    1
    20    14    15   ar
    21    15    16   ar
    22    16    17   ar
    23    17    18   ar
    24    18    20    1
    25    20    21    1
    26    20    22    1
    27    20    23    1
    28    18    19   ar
    29    11    12    1
    30    12    13    1
    31     4    24    1
    32    24    25    1
    33    24    26    1
    34     4     5    1
    35    34    29    1
    36     5     1    1
    37    13     8    1
    38    19    14   ar
    39    27    28    1
@<TRIPOS>MOLECULE
*****
 36 39 0 0 0
SMALL
GASTEIGER

@<TRIPOS>ATOM
      1 C         142.2445  140.9004  166.6458 C.3     1  UNL1        0.0545
      2 C         142.6395  142.3445  166.5532 C.3     1  UNL1        0.0162
      3 C         143.6691  142.4749  165.4702 C.3     1  UNL1        0.0100
      4 C         143.9105  141.1114  164.8935 C.3     1  UNL1        0.0704
      5 C         143.0300  140.1383  165.6201 C.3     1  UNL1        0.0243
      6 C         144.3553  139.8982  164.1317 C.2     1  UNL1        0.2248
      7 O         145.4810  139.0556  164.6540 O.2     1  UNL1       -0.2749
      8 N         143.6745  139.5277  162.8474 N.am    1  UNL1       -0.2760
      9 C         142.5488  140.3704  162.3251 C.3     1  UNL1        0.1149
     10 C         141.8679  139.9999  161.0409 C.3     1  UNL1        0.1151
     11 N         142.3127  138.7868  160.2790 N.pl3   1  UNL1       -0.2747
     12 C         143.4384  137.9442  160.8013 C.3     1  UNL1        0.1151
     13 C         144.1192  138.3146  162.0855 C.3     1  UNL1        0.1149
     14 C         141.6318  138.4164  158.9948 C.ar    1  UNL1        0.2202
     15 N         140.2720  138.9662  158.6811 N.ar    1  UNL1       -0.2121
     16 C         139.5911  138.5957  157.3969 C.ar    1  UNL1        0.1033
     17 C         140.2702  137.6755  156.4264 C.ar    1  UNL1        0.0439
     18 C         141.6301  137.1256  156.7400 C.ar    1  UNL1        0.1570
     19 N         142.3110  137.4961  158.0242 N.ar    1  UNL1       -0.2096
     20 C         142.3091  136.2054  155.7695 C.3     1  UNL1        0.4350
     21 F         142.9881  135.2851  154.7989 F       1  UNL1       -0.1644
     22 F         143.4053  135.9647  156.7646 F       1  UNL1       -0.1644
     23 F         141.2128  136.4461  154.7743 F       1  UNL1       -0.1644
     24 C         144.8839  141.8308  164.0077 C.3     1  UNL1        0.0082
     25 C         144.4899  143.1215  163.3528 C.3     1  UNL1        0.0005
     26 C         145.8077  141.6514  163.7194 C.3     1  UNL1        0.0005
     27 N         141.2403  140.3203  167.5972 N.3     1  UNL1       -0.2975
     28 H         140.3344  140.3612  167.1302 H       1  UNL1        0.1232
     29 C         141.9774  140.5542  170.0775 C.3     1  UNL1        0.1591
     30 C         141.7923  141.1630  171.4358 C.3     1  UNL1        0.1729
     31 O         140.6848  142.1467  171.6721 O.3     1  UNL1       -0.3511
     32 C         139.7626  142.5216  170.5502 C.3     1  UNL1        0.1437
     33 C         139.9477  141.9128  169.1919 C.3     1  UNL1        0.0503
     34 C         141.0552  140.9291  168.9556 C.3     1  UNL1        0.0865
     35 C         142.9099  138.1345  170.2379 C.3     1  UNL1        0.1742
     36 O         143.0849  139.5705  169.8411 O.3     1  UNL1       -0.3496
@<TRIPOS>BOND
     1    35    36    1
     2    29    36    1
     3    29    30    1
     4    30    31    1
     5    31    32    1
     6    32    33    1
     7    33    34    1
     8    34    27    1
     9     1    27    1
    10     1     2    1
    11     2     3    1
    12     3     4    1
    13     4     6    1
    14     6     7    2
    15     6     8   am
    16     8     9    1
    17     9    10    1
    18    10    11    1
    19    11    14    1
    20    14    15   ar
    21    15    16   ar
    22    16    17   ar
    23    17    18   ar
    24    18    20    1
    25    20    21    1
    26    20    22    1
    27    20    23    1
    28    18    19   ar
    29    11    12    1
    30    12    13    1
    31     4    24    1
    32    24    25    1
    33    24    26    1
    34     4     5    1
    35    34    29    1
    36     5     1    1
    37    13     8    1
    38    19    14   ar
    39    27    28    1
@<TRIPOS>MOLECULE
*****
 36 39 0 0 0
SMALL
GASTEIGER

@<TRIPOS>ATOM
      1 C         140.1168  141.9432  164.9273 C.3     1  UNL1        0.0545
      2 C         141.1608  141.9940  166.0031 C.3     1  UNL1        0.0162
      3 C         142.2576  142.9075  165.5421 C.3     1  UNL1        0.0100
      4 C         141.8914  143.4214  164.1813 C.3     1  UNL1        0.0704
      5 C         140.5684  142.8255  163.8013 C.3     1  UNL1        0.0243
      6 C         141.7977  144.0891  162.8414 C.2     1  UNL1        0.2248
      7 O         141.1068  145.4140  162.7102 O.2     1  UNL1       -0.2749
      8 N         142.3950  143.4318  161.6325 N.am    1  UNL1       -0.2760
      9 C         143.0859  142.1069  161.7637 C.3     1  UNL1        0.1149
     10 C         143.6832  141.4495  160.5549 C.3     1  UNL1        0.1151
     11 N         143.5895  142.1171  159.2149 N.pl3   1  UNL1       -0.2747
     12 C         142.8986  143.4420  159.0838 C.3     1  UNL1        0.1151
     13 C         142.3014  144.0993  160.2925 C.3     1  UNL1        0.1149
     14 C         144.1868  141.4597  158.0061 C.ar    1  UNL1        0.2202
     15 N         143.5084  140.2753  157.3843 N.ar    1  UNL1       -0.2121
     16 C         144.1057  139.6179  156.1755 C.ar    1  UNL1        0.1033
     17 C         145.3814  140.1451  155.5886 C.ar    1  UNL1        0.0439
     18 C         146.0599  141.3296  156.2104 C.ar    1  UNL1        0.1570
     19 N         145.4626  141.9870  157.4192 N.ar    1  UNL1       -0.2096
     20 C         147.3356  141.8568  155.6234 C.3     1  UNL1        0.4350
     21 F         148.6114  142.3839  155.0364 F       1  UNL1       -0.1644
     22 F         147.6390  142.5592  156.9136 F       1  UNL1       -0.1644
     23 F         147.0323  141.1543  154.3333 F       1  UNL1       -0.1644
     24 C         143.1948  144.1569  164.2812 C.3     1  UNL1        0.0082
     25 C         144.3976  143.4760  164.8641 C.3     1  UNL1        0.0005
     26 C         143.4887  145.0637  164.0363 C.3     1  UNL1        0.0005
     27 N         138.8446  141.1497  164.9698 N.3     1  UNL1       -0.2975
     28 H         138.8106  140.6966  165.8831 H       1  UNL1        0.1232
     29 C         137.8572  140.4133  162.6823 C.3     1  UNL1        0.1591
     30 C         137.6049  139.3454  161.6596 C.3     1  UNL1        0.1729
     31 O         138.0876  137.9460  161.9017 O.3     1  UNL1       -0.3511
     32 C         138.8226  137.6145  163.1665 C.3     1  UNL1        0.1437
     33 C         139.0749  138.6823  164.1892 C.3     1  UNL1        0.0503
     34 C         138.5923  140.0818  163.9471 C.3     1  UNL1        0.0865
     35 C         138.0351  142.6640  161.3966 C.3     1  UNL1        0.1742
     36 O         137.3745  141.8127  162.4402 O.3     1  UNL1       -0.3496
@<TRIPOS>BOND
     1    35    36    1
     2    29    36    1
     3    29    30    1
     4    30    31    1
     5    31    32    1
     6    32    33    1
     7    33    34    1
     8    34    27    1
     9     1    27    1
    10     1     2    1
    11     2     3    1
    12     3     4    1
    13     4     6    1
    14     6     7    2
    15     6     8   am
    16     8     9    1
    17     9    10    1
    18    10    11    1
    19    11    14    1
    20    14    15   ar
    21    15    16   ar
    22    16    17   ar
    23    17    18   ar
    24    18    20    1
    25    20    21    1
    26    20    22    1
    27    20    23    1
    28    18    19   ar
    29    11    12    1
    30    12    13    1
    31     4    24    1
    32    24    25    1
    33    24    26    1
    34     4     5    1
    35    34    29    1
    36     5     1    1
    37    13     8    1
    38    19    14   ar
    39    27    28    1
@<TRIPOS>MOLECULE
*****
 36 39 0 0 0
SMALL
GASTEIGER

@<TRIPOS>ATOM
      1 C         139.9879  140.9328  160.4155 C.3     1  UNL1        0.0545
      2 C         139.0390  141.8900  159.7571 C.3     1  UNL1        0.0162
      3 C         139.5646  143.2796  159.9637 C.3     1  UNL1        0.0100
      4 C         140.8383  143.1813  160.7498 C.3     1  UNL1        0.0704
      5 C         141.0999  141.7309  161.0290 C.3     1  UNL1        0.0243
      6 C         142.1131  143.3955  161.5107 C.2     1  UNL1        0.2248
      7 O         143.3310  143.9119  160.8036 O.2     1  UNL1       -0.2749
      8 N         142.1699  143.0934  162.9789 N.am    1  UNL1       -0.2760
      9 C         140.9520  142.5770  163.6860 C.3     1  UNL1        0.1149
     10 C         141.0088  142.2748  165.1542 C.3     1  UNL1        0.1151
     11 N         142.2835  142.4890  165.9152 N.pl3   1  UNL1       -0.2747
     12 C         143.5014  143.0054  165.2082 C.3     1  UNL1        0.1151
     13 C         143.4446  143.3076  163.7400 C.3     1  UNL1        0.1149
     14 C         142.3402  142.1868  167.3834 C.ar    1  UNL1        0.2202
     15 N         143.5279  142.6169  168.1923 N.ar    1  UNL1       -0.2121
     16 C         143.5847  142.3147  169.6605 C.ar    1  UNL1        0.1033
     17 C         142.4537  141.5824  170.3196 C.ar    1  UNL1        0.0439
     18 C         141.2660  141.1523  169.5108 C.ar    1  UNL1        0.1570
     19 N         141.2092  141.4545  168.0426 N.ar    1  UNL1       -0.2096
     20 C         140.1350  140.4200  170.1700 C.3     1  UNL1        0.4350
     21 F         139.0041  139.6877  170.8293 F       1  UNL1       -0.1644
     22 F         139.2561  141.6234  169.9990 F       1  UNL1       -0.1644
     23 F         141.0140  139.2166  170.3411 F       1  UNL1       -0.1644
     24 C         140.8432  144.6764  160.6296 C.3     1  UNL1        0.0082
     25 C         140.2879  145.5199  161.7388 C.3     1  UNL1        0.0005
     26 C         141.1494  145.3057  159.9376 C.3     1  UNL1        0.0005
     27 N         139.8491  139.4397  160.4537 N.3     1  UNL1       -0.2975
     28 H         138.9403  139.2180  160.0470 H       1  UNL1        0.1232
     29 C         138.8149  138.8456  162.7619 C.3     1  UNL1        0.1591
     30 C         138.8923  138.1185  164.0715 C.3     1  UNL1        0.1729
     31 O         140.0811  137.2583  164.3828 O.3     1  UNL1       -0.3511
     32 C         141.1926  137.1253  163.3844 C.3     1  UNL1        0.1437
     33 C         141.1152  137.8524  162.0747 C.3     1  UNL1        0.0503
     34 C         139.9264  138.7126  161.7635 C.3     1  UNL1        0.0865
     35 C         137.5074  141.0706  163.0613 C.3     1  UNL1        0.1742
     36 O         137.6261  139.7057  162.4507 O.3     1  UNL1       -0.3496
@<TRIPOS>BOND
     1    35    36    1
     2    29    36    1
     3    29    30    1
     4    30    31    1
     5    31    32    1
     6    32    33    1
     7    33    34    1
     8    34    27    1
     9     1    27    1
    10     1     2    1
    11     2     3    1
    12     3     4    1
    13     4     6    1
    14     6     7    2
    15     6     8   am
    16     8     9    1
    17     9    10    1
    18    10    11    1
    19    11    14    1
    20    14    15   ar
    21    15    16   ar
    22    16    17   ar
    23    17    18   ar
    24    18    20    1
    25    20    21    1
    26    20    22    1
    27    20    23    1
    28    18    19   ar
    29    11    12    1
    30    12    13    1
    31     4    24    1
    32    24    25    1
    33    24    26    1
    34     4     5    1
    35    34    29    1
    36     5     1    1
    37    13     8    1
    38    19    14   ar
    39    27    28    1
