@<TRIPOS>MOLECULE
*****
 37 44 0 0 0
SMALL
GASTEIGER

@<TRIPOS>ATOM
      1 C         139.5099  144.5650  163.0226 C.3     1  UNL1        0.0904
      2 C         139.5281  144.5234  164.5219 C.3     1  UNL1        0.0723
      3 C         140.2093  143.4502  165.3251 C.3     1  UNL1        0.2078
      4 O         140.2516  143.3973  163.8266 O.3     1  UNL1       -0.3186
      5 C         140.9085  142.3769  162.9450 C.3     1  UNL1        0.1915
      6 C         140.7702  142.6063  161.4691 C.3     1  UNL1        0.0566
      7 C         140.2001  143.4918  162.2341 C.3     1  UNL1        0.1745
      8 N         141.6856  141.1575  163.3441 N.ar    1  UNL1       -0.3054
      9 C         142.2978  140.2081  162.3572 C.ar    1  UNL1        0.0617
     10 C         142.3159  140.1930  160.8574 C.ar    1  UNL1        0.0172
     11 C         143.0243  139.0909  160.1270 C.ar    1  UNL1        0.0015
     12 C         143.7146  138.0039  160.8964 C.ar    1  UNL1        0.0001
     13 C         143.6965  138.0190  162.3962 C.ar    1  UNL1        0.0015
     14 C         142.9881  139.1211  163.1266 C.ar    1  UNL1        0.0170
     15 C         142.8025  139.3988  164.5889 C.ar    1  UNL1        0.0164
     16 C         143.1825  138.7917  165.9995 C.ar    1  UNL1        0.0033
     17 C         142.7945  139.3873  167.3203 C.ar    1  UNL1        0.0525
     18 C         141.9870  140.6506  167.3651 C.ar    1  UNL1        0.0228
     19 C         141.4244  141.5214  168.4492 C.ar    1  UNL1        0.0174
     20 C         141.4788  141.4232  169.9450 C.ar    1  UNL1        0.0015
     21 C         140.8081  142.4654  170.7900 C.ar    1  UNL1        0.0001
     22 C         140.0829  143.6058  170.1391 C.ar    1  UNL1        0.0015
     23 C         140.0286  143.7040  168.6433 C.ar    1  UNL1        0.0172
     24 C         140.6993  142.6618  167.7984 C.ar    1  UNL1        0.0618
     25 N         140.8137  142.4959  166.3120 N.ar    1  UNL1       -0.3039
     26 C         141.6095  141.2529  166.0442 C.ar    1  UNL1        0.0777
     27 C         141.9975  140.6573  164.7234 C.ar    1  UNL1        0.0773
     28 C         143.3483  138.5112  168.4046 C.2     1  UNL1        0.2459
     29 O         143.1982  138.7331  169.8804 O.2     1  UNL1       -0.2701
     30 N         144.0786  137.3740  167.7537 N.am    1  UNL1       -0.2969
     31 C         143.9762  137.5474  166.2674 C.3     1  UNL1        0.1168
     32 H         144.5436  136.6423  168.2203 H       1  UNL1        0.1501
     33 C         139.5790  146.6429  161.4645 C.3     1  UNL1        0.0859
     34 N         138.8014  145.6798  162.3118 N.3     1  UNL1       -0.2952
     35 H         138.1069  145.2466  161.7032 H       1  UNL1        0.1233
     36 O         140.1820  143.5333  160.7348 O.3     1  UNL1       -0.3478
     37 C         141.4585  143.7406  159.9748 C.3     1  UNL1        0.1743
@<TRIPOS>BOND
     1    33    34    1
     2     1    34    1
     3     1     2    1
     4     3     2    1
     5     3     4    1
     6     4     5    1
     7     5     6    1
     8     5     7    1
     9     7    36    1
    10    36    37    1
    11     5     8    1
    12     8     9   ar
    13     9    10   ar
    14    10    11   ar
    15    11    12   ar
    16    12    13   ar
    17    13    14   ar
    18    14    15   ar
    19    15    16   ar
    20    16    17   ar
    21    17    18   ar
    22    18    19   ar
    23    19    20   ar
    24    20    21   ar
    25    21    22   ar
    26    22    23   ar
    27    23    24   ar
    28    24    25   ar
    29    25    26   ar
    30    26    27   ar
    31    17    28    1
    32    28    29    2
    33    28    30   am
    34    30    31    1
    35     7     1    1
    36    27     8   ar
    37    25     3    1
    38    14     9   ar
    39    27    15   ar
    40    31    16    1
    41    26    18   ar
    42    24    19   ar
    43    34    35    1
    44    30    32    1
@<TRIPOS>MOLECULE
*****
 37 44 0 0 0
SMALL
GASTEIGER

@<TRIPOS>ATOM
      1 C         144.6785  141.7775  163.0475 C.3     1  UNL1        0.0904
      2 C         144.6172  142.0748  164.5164 C.3     1  UNL1        0.0723
      3 C         143.5002  141.6285  165.4187 C.3     1  UNL1        0.2078
      4 O         143.4640  141.2768  163.9610 O.3     1  UNL1       -0.3186
      5 C         142.4223  140.4998  163.2119 C.3     1  UNL1        0.1915
      6 C         142.6771  140.3157  161.7452 C.3     1  UNL1        0.0566
      7 C         143.5811  140.9900  162.3952 C.3     1  UNL1        0.1745
      8 N         141.1594  139.8826  163.7356 N.ar    1  UNL1       -0.3054
      9 C         140.1922  139.1240  162.8760 C.ar    1  UNL1        0.0617
     10 C         140.1950  138.7938  161.4128 C.ar    1  UNL1        0.0172
     11 C         139.0670  138.0022  160.8204 C.ar    1  UNL1        0.0015
     12 C         137.9363  137.5406  161.6913 C.ar    1  UNL1        0.0001
     13 C         137.9335  137.8708  163.1544 C.ar    1  UNL1        0.0015
     14 C         139.0614  138.6624  163.7468 C.ar    1  UNL1        0.0170
     15 C         139.3298  139.1358  165.1446 C.ar    1  UNL1        0.0164
     16 C         138.6862  139.0883  166.5889 C.ar    1  UNL1        0.0033
     17 C         139.2845  139.7146  167.8136 C.ar    1  UNL1        0.0525
     18 C         140.5871  140.4522  167.7186 C.ar    1  UNL1        0.0228
     19 C         141.4721  141.1864  168.6819 C.ar    1  UNL1        0.0174
     20 C         141.3524  141.4504  170.1536 C.ar    1  UNL1        0.0015
     21 C         142.4171  142.2321  170.8644 C.ar    1  UNL1        0.0001
     22 C         143.6016  142.7498  170.1035 C.ar    1  UNL1        0.0015
     23 C         143.7213  142.4858  168.6318 C.ar    1  UNL1        0.0172
     24 C         142.6566  141.7042  167.9210 C.ar    1  UNL1        0.0618
     25 N         142.5036  141.2900  166.4874 N.ar    1  UNL1       -0.3039
     26 C         141.2247  140.5163  166.3624 C.ar    1  UNL1        0.0777
     27 C         140.6264  139.8899  165.1377 C.ar    1  UNL1        0.0773
     28 C         138.3673  139.4420  168.9688 C.2     1  UNL1        0.2459
     29 O         138.5781  139.8862  170.3859 O.2     1  UNL1       -0.2701
     30 N         137.2022  138.6472  168.4580 N.am    1  UNL1       -0.2969
     31 C         137.3994  138.4286  166.9872 C.3     1  UNL1        0.1168
     32 H         136.4417  138.3255  168.9940 H       1  UNL1        0.1501
     33 C         145.5975  142.8965  160.8903 C.3     1  UNL1        0.0859
     34 N         145.8373  142.2676  162.2308 N.3     1  UNL1       -0.2952
     35 H         146.3251  142.9608  162.7982 H       1  UNL1        0.1233
     36 O         143.6424  140.6926  160.9263 O.3     1  UNL1       -0.3478
     37 C         143.7932  139.2771  160.4533 C.3     1  UNL1        0.1743
@<TRIPOS>BOND
     1    33    34    1
     2     1    34    1
     3     1     2    1
     4     3     2    1
     5     3     4    1
     6     4     5    1
     7     5     6    1
     8     5     7    1
     9     7    36    1
    10    36    37    1
    11     5     8    1
    12     8     9   ar
    13     9    10   ar
    14    10    11   ar
    15    11    12   ar
    16    12    13   ar
    17    13    14   ar
    18    14    15   ar
    19    15    16   ar
    20    16    17   ar
    21    17    18   ar
    22    18    19   ar
    23    19    20   ar
    24    20    21   ar
    25    21    22   ar
    26    22    23   ar
    27    23    24   ar
    28    24    25   ar
    29    25    26   ar
    30    26    27   ar
    31    17    28    1
    32    28    29    2
    33    28    30   am
    34    30    31    1
    35     7     1    1
    36    27     8   ar
    37    25     3    1
    38    14     9   ar
    39    27    15   ar
    40    31    16    1
    41    26    18   ar
    42    24    19   ar
    43    34    35    1
    44    30    32    1
@<TRIPOS>MOLECULE
*****
 37 44 0 0 0
SMALL
GASTEIGER

@<TRIPOS>ATOM
      1 C         139.8157  138.1222  157.4306 C.3     1  UNL1        0.0904
      2 C         139.6442  137.8556  158.8967 C.3     1  UNL1        0.0723
      3 C         139.6218  138.9290  159.9495 C.3     1  UNL1        0.2078
      4 O         139.7994  139.3048  158.5082 O.3     1  UNL1       -0.3186
      5 C         139.9693  140.6706  157.9119 C.3     1  UNL1        0.1915
      6 C         140.1257  140.7149  156.4207 C.3     1  UNL1        0.0566
      7 C         139.9783  139.5297  156.9382 C.3     1  UNL1        0.1745
      8 N         140.0035  141.9981  158.6096 N.ar    1  UNL1       -0.3054
      9 C         140.1809  143.3039  157.8930 C.ar    1  UNL1        0.0617
     10 C         140.3563  143.6362  156.4409 C.ar    1  UNL1        0.0172
     11 C         140.5140  145.0649  156.0122 C.ar    1  UNL1        0.0015
     12 C         140.4964  146.1614  157.0357 C.ar    1  UNL1        0.0001
     13 C         140.3210  145.8291  158.4878 C.ar    1  UNL1        0.0015
     14 C         140.1633  144.4004  158.9165 C.ar    1  UNL1        0.0170
     15 C         139.9750  143.7722  160.2656 C.ar    1  UNL1        0.0164
     16 C         139.8512  144.1787  161.7894 C.ar    1  UNL1        0.0033
     17 C         139.6583  143.2121  162.9201 C.ar    1  UNL1        0.0525
     18 C         139.5696  141.7408  162.6422 C.ar    1  UNL1        0.0228
     19 C         139.3861  140.5055  163.4732 C.ar    1  UNL1        0.0174
     20 C         139.2187  140.3052  164.9503 C.ar    1  UNL1        0.0015
     21 C         139.0516  138.9218  165.5054 C.ar    1  UNL1        0.0001
     22 C         139.0519  137.7385  164.5834 C.ar    1  UNL1        0.0015
     23 C         139.2193  137.9389  163.1063 C.ar    1  UNL1        0.0172
     24 C         139.3864  139.3223  162.5512 C.ar    1  UNL1        0.0618
     25 N         139.5701  139.8263  161.1504 N.ar    1  UNL1       -0.3039
     26 C         139.6833  141.3210  161.2066 C.ar    1  UNL1        0.0777
     27 C         139.8762  142.2875  160.0759 C.ar    1  UNL1        0.0773
     28 C         139.5901  143.9985  164.1956 C.2     1  UNL1        0.2459
     29 O         139.4039  143.4319  165.5719 O.2     1  UNL1       -0.2701
     30 N         139.7409  145.4511  163.8531 N.am    1  UNL1       -0.2969
     31 C         139.9022  145.5624  162.3660 C.3     1  UNL1        0.1168
     32 H         139.7350  146.1999  164.4922 H       1  UNL1        0.1501
     33 C         141.1281  136.4196  155.9715 C.3     1  UNL1        0.0859
     34 N         139.8247  136.9812  156.4569 N.3     1  UNL1       -0.2952
     35 H         139.3194  136.2131  156.8987 H       1  UNL1        0.1233
     36 O         140.1498  139.7962  155.4720 O.3     1  UNL1       -0.3478
     37 C         139.0909  140.5434  154.7167 C.3     1  UNL1        0.1743
@<TRIPOS>BOND
     1    33    34    1
     2     1    34    1
     3     1     2    1
     4     3     2    1
     5     3     4    1
     6     4     5    1
     7     5     6    1
     8     5     7    1
     9     7    36    1
    10    36    37    1
    11     5     8    1
    12     8     9   ar
    13     9    10   ar
    14    10    11   ar
    15    11    12   ar
    16    12    13   ar
    17    13    14   ar
    18    14    15   ar
    19    15    16   ar
    20    16    17   ar
    21    17    18   ar
    22    18    19   ar
    23    19    20   ar
    24    20    21   ar
    25    21    22   ar
    26    22    23   ar
    27    23    24   ar
    28    24    25   ar
    29    25    26   ar
    30    26    27   ar
    31    17    28    1
    32    28    29    2
    33    28    30   am
    34    30    31    1
    35     7     1    1
    36    27     8   ar
    37    25     3    1
    38    14     9   ar
    39    27    15   ar
    40    31    16    1
    41    26    18   ar
    42    24    19   ar
    43    34    35    1
    44    30    32    1
@<TRIPOS>MOLECULE
*****
 37 44 0 0 0
SMALL
GASTEIGER

@<TRIPOS>ATOM
      1 C         140.6313  145.4054  157.8399 C.3     1  UNL1        0.0904
      2 C         140.2796  145.4846  159.2959 C.3     1  UNL1        0.0723
      3 C         140.3738  144.3246  160.2480 C.3     1  UNL1        0.2078
      4 O         140.7507  144.1373  158.8082 O.3     1  UNL1       -0.3186
      5 C         141.2384  142.8952  158.1231 C.3     1  UNL1        0.1915
      6 C         141.5340  143.0329  156.6589 C.3     1  UNL1        0.0566
      7 C         141.1107  144.1108  157.2535 C.3     1  UNL1        0.1745
      8 N         141.4697  141.5336  158.7085 N.ar    1  UNL1       -0.3054
      9 C         141.9639  140.3639  157.9100 C.ar    1  UNL1        0.0617
     10 C         142.3309  140.2198  156.4628 C.ar    1  UNL1        0.0172
     11 C         142.8040  138.8969  155.9373 C.ar    1  UNL1        0.0015
     12 C         142.9101  137.7182  156.8589 C.ar    1  UNL1        0.0001
     13 C         142.5430  137.8624  158.3061 C.ar    1  UNL1        0.0015
     14 C         142.0699  139.1852  158.8317 C.ar    1  UNL1        0.0170
     15 C         141.6413  139.6265  160.1997 C.ar    1  UNL1        0.0164
     16 C         141.4632  139.0512  161.6625 C.ar    1  UNL1        0.0033
     17 C         140.9834  139.8444  162.8417 C.ar    1  UNL1        0.0525
     18 C         140.6328  141.2937  162.6782 C.ar    1  UNL1        0.0228
     19 C         140.1363  142.3817  163.5836 C.ar    1  UNL1        0.0174
     20 C         139.8007  142.3959  165.0455 C.ar    1  UNL1        0.0015
     21 C         139.3160  143.6598  165.6915 C.ar    1  UNL1        0.0001
     22 C         139.1668  144.9097  164.8757 C.ar    1  UNL1        0.0015
     23 C         139.5025  144.8956  163.4138 C.ar    1  UNL1        0.0172
     24 C         139.9872  143.6316  162.7677 C.ar    1  UNL1        0.0618
     25 N         140.3915  143.3161  161.3582 N.ar    1  UNL1       -0.3039
     26 C         140.7906  141.8712  161.3028 C.ar    1  UNL1        0.0777
     27 C         141.2704  141.0779  160.1236 C.ar    1  UNL1        0.0773
     28 C         140.9565  138.9336  164.0332 C.2     1  UNL1        0.2459
     29 O         140.5397  139.3123  165.4234 O.2     1  UNL1       -0.2701
     30 N         141.4198  137.5774  163.5903 N.am    1  UNL1       -0.2969
     31 C         141.7329  137.6501  162.1252 C.3     1  UNL1        0.1168
     32 H         141.5036  136.7796  164.1611 H       1  UNL1        0.1501
     33 C         139.2596  146.8364  156.1604 C.3     1  UNL1        0.0859
     34 N         140.5036  146.6209  156.9703 N.3     1  UNL1       -0.2952
     35 H         140.6011  147.4318  157.5814 H       1  UNL1        0.1233
     36 O         141.4624  144.0315  155.7974 O.3     1  UNL1       -0.3478
     37 C         140.6256  143.2036  154.8677 C.3     1  UNL1        0.1743
@<TRIPOS>BOND
     1    33    34    1
     2     1    34    1
     3     1     2    1
     4     3     2    1
     5     3     4    1
     6     4     5    1
     7     5     6    1
     8     5     7    1
     9     7    36    1
    10    36    37    1
    11     5     8    1
    12     8     9   ar
    13     9    10   ar
    14    10    11   ar
    15    11    12   ar
    16    12    13   ar
    17    13    14   ar
    18    14    15   ar
    19    15    16   ar
    20    16    17   ar
    21    17    18   ar
    22    18    19   ar
    23    19    20   ar
    24    20    21   ar
    25    21    22   ar
    26    22    23   ar
    27    23    24   ar
    28    24    25   ar
    29    25    26   ar
    30    26    27   ar
    31    17    28    1
    32    28    29    2
    33    28    30   am
    34    30    31    1
    35     7     1    1
    36    27     8   ar
    37    25     3    1
    38    14     9   ar
    39    27    15   ar
    40    31    16    1
    41    26    18   ar
    42    24    19   ar
    43    34    35    1
    44    30    32    1
@<TRIPOS>MOLECULE
*****
 37 44 0 0 0
SMALL
GASTEIGER

@<TRIPOS>ATOM
      1 C         142.8489  138.4534  157.8493 C.3     1  UNL1        0.0904
      2 C         142.7315  138.1709  159.3177 C.3     1  UNL1        0.0723
      3 C         142.2488  139.1719  160.3306 C.3     1  UNL1        0.2078
      4 O         142.3284  139.5579  158.8833 O.3     1  UNL1       -0.3186
      5 C         141.9801  140.8697  158.2446 C.3     1  UNL1        0.1915
      6 C         142.1709  140.9411  156.7585 C.3     1  UNL1        0.0566
      7 C         142.4732  139.8027  157.3127 C.3     1  UNL1        0.1745
      8 N         141.4661  142.1196  158.8956 N.ar    1  UNL1       -0.3054
      9 C         141.1532  143.3766  158.1393 C.ar    1  UNL1        0.0617
     10 C         141.2480  143.7214  156.6825 C.ar    1  UNL1        0.0172
     11 C         140.8568  145.0897  156.2087 C.ar    1  UNL1        0.0015
     12 C         140.3708  146.1133  157.1917 C.ar    1  UNL1        0.0001
     13 C         140.2760  145.7685  158.6484 C.ar    1  UNL1        0.0015
     14 C         140.6672  144.4001  159.1222 C.ar    1  UNL1        0.0170
     15 C         140.6798  143.7757  160.4860 C.ar    1  UNL1        0.0164
     16 C         140.3424  144.1327  161.9897 C.ar    1  UNL1        0.0033
     17 C         140.4915  143.1905  163.1473 C.ar    1  UNL1        0.0525
     18 C         140.9932  141.7954  162.9190 C.ar    1  UNL1        0.0228
     19 C         141.2682  140.6033  163.7870 C.ar    1  UNL1        0.0174
     20 C         141.1284  140.3837  165.2642 C.ar    1  UNL1        0.0015
     21 C         141.4879  139.0560  165.8624 C.ar    1  UNL1        0.0001
     22 C         141.9872  137.9478  164.9833 C.ar    1  UNL1        0.0015
     23 C         142.1270  138.1675  163.5061 C.ar    1  UNL1        0.0172
     24 C         141.7675  139.4952  162.9079 C.ar    1  UNL1        0.0618
     25 N         141.8012  140.0024  161.4967 N.ar    1  UNL1       -0.3039
     26 C         141.3226  141.4240  161.5036 C.ar    1  UNL1        0.0777
     27 C         141.1735  142.3662  160.3460 C.ar    1  UNL1        0.0773
     28 C         140.0686  143.9140  164.3914 C.2     1  UNL1        0.2459
     29 O         140.0581  143.3477  165.7803 O.2     1  UNL1       -0.2701
     30 N         139.6581  145.3034  164.0026 N.am    1  UNL1       -0.2969
     31 C         139.8273  145.4385  162.5183 C.3     1  UNL1        0.1168
     32 H         139.3344  146.0036  164.6142 H       1  UNL1        0.1501
     33 C         142.6159  136.0772  156.8247 C.3     1  UNL1        0.0859
     34 N         143.3421  137.3864  156.9174 N.3     1  UNL1       -0.2952
     35 H         143.3416  137.7903  155.9807 H       1  UNL1        0.1233
     36 O         142.5906  140.0853  155.8442 O.3     1  UNL1       -0.3478
     37 C         143.5957  141.0834  155.3505 C.3     1  UNL1        0.1743
@<TRIPOS>BOND
     1    33    34    1
     2     1    34    1
     3     1     2    1
     4     3     2    1
     5     3     4    1
     6     4     5    1
     7     5     6    1
     8     5     7    1
     9     7    36    1
    10    36    37    1
    11     5     8    1
    12     8     9   ar
    13     9    10   ar
    14    10    11   ar
    15    11    12   ar
    16    12    13   ar
    17    13    14   ar
    18    14    15   ar
    19    15    16   ar
    20    16    17   ar
    21    17    18   ar
    22    18    19   ar
    23    19    20   ar
    24    20    21   ar
    25    21    22   ar
    26    22    23   ar
    27    23    24   ar
    28    24    25   ar
    29    25    26   ar
    30    26    27   ar
    31    17    28    1
    32    28    29    2
    33    28    30   am
    34    30    31    1
    35     7     1    1
    36    27     8   ar
    37    25     3    1
    38    14     9   ar
    39    27    15   ar
    40    31    16    1
    41    26    18   ar
    42    24    19   ar
    43    34    35    1
    44    30    32    1
@<TRIPOS>MOLECULE
*****
 37 44 0 0 0
SMALL
GASTEIGER

@<TRIPOS>ATOM
      1 C         144.8306  140.6825  156.5896 C.3     1  UNL1        0.0904
      2 C         144.8851  140.4507  158.0705 C.3     1  UNL1        0.0723
      3 C         144.1164  141.2611  159.0773 C.3     1  UNL1        0.2078
      4 O         143.9902  141.5768  157.6163 O.3     1  UNL1       -0.3186
      5 C         143.1650  142.6422  156.9576 C.3     1  UNL1        0.1915
      6 C         143.2545  142.7028  155.4615 C.3     1  UNL1        0.0566
      7 C         143.9706  141.7783  156.0331 C.3     1  UNL1        0.1745
      8 N         142.2622  143.6551  157.5972 N.ar    1  UNL1       -0.3054
      9 C         141.4848  144.6763  156.8207 C.ar    1  UNL1        0.0617
     10 C         141.3873  144.9586  155.3508 C.ar    1  UNL1        0.0172
     11 C         140.5087  146.0697  154.8572 C.ar    1  UNL1        0.0015
     12 C         139.7276  146.8983  155.8336 C.ar    1  UNL1        0.0001
     13 C         139.8252  146.6160  157.3035 C.ar    1  UNL1        0.0015
     14 C         140.7038  145.5050  157.7971 C.ar    1  UNL1        0.0170
     15 C         140.9985  144.9959  159.1769 C.ar    1  UNL1        0.0164
     16 C         140.6185  145.2829  160.6855 C.ar    1  UNL1        0.0033
     17 C         141.1465  144.5164  161.8619 C.ar    1  UNL1        0.0525
     18 C         142.1081  143.3849  161.6493 C.ar    1  UNL1        0.0228
     19 C         142.8314  142.4162  162.5373 C.ar    1  UNL1        0.0174
     20 C         142.8427  142.2353  164.0263 C.ar    1  UNL1        0.0015
     21 C         143.6824  141.1571  164.6445 C.ar    1  UNL1        0.0001
     22 C         144.5109  140.2596  163.7737 C.ar    1  UNL1        0.0015
     23 C         144.4995  140.4405  162.2847 C.ar    1  UNL1        0.0172
     24 C         143.6599  141.5187  161.6665 C.ar    1  UNL1        0.0618
     25 N         143.4486  141.9328  160.2404 N.ar    1  UNL1       -0.3039
     26 C         142.4896  143.0861  160.2298 C.ar    1  UNL1        0.0777
     27 C         141.9616  143.8526  159.0534 C.ar    1  UNL1        0.0773
     28 C         140.5436  145.1011  163.1046 C.2     1  UNL1        0.2459
     29 O         140.7968  144.6392  164.5091 O.2     1  UNL1       -0.2701
     30 N         139.6430  146.2290  162.6963 N.am    1  UNL1       -0.2969
     31 C         139.6893  146.3413  161.2013 C.3     1  UNL1        0.1168
     32 H         139.1143  146.7961  163.3031 H       1  UNL1        0.1501
     33 C         144.9943  138.6460  154.9848 C.3     1  UNL1        0.0859
     34 N         145.6361  139.8186  155.6651 N.3     1  UNL1       -0.2952
     35 H         145.9922  140.4277  154.9285 H       1  UNL1        0.1233
     36 O         143.9161  142.0101  154.5521 O.3     1  UNL1       -0.3478
     37 C         144.4620  143.2809  153.9714 C.3     1  UNL1        0.1743
@<TRIPOS>BOND
     1    33    34    1
     2     1    34    1
     3     1     2    1
     4     3     2    1
     5     3     4    1
     6     4     5    1
     7     5     6    1
     8     5     7    1
     9     7    36    1
    10    36    37    1
    11     5     8    1
    12     8     9   ar
    13     9    10   ar
    14    10    11   ar
    15    11    12   ar
    16    12    13   ar
    17    13    14   ar
    18    14    15   ar
    19    15    16   ar
    20    16    17   ar
    21    17    18   ar
    22    18    19   ar
    23    19    20   ar
    24    20    21   ar
    25    21    22   ar
    26    22    23   ar
    27    23    24   ar
    28    24    25   ar
    29    25    26   ar
    30    26    27   ar
    31    17    28    1
    32    28    29    2
    33    28    30   am
    34    30    31    1
    35     7     1    1
    36    27     8   ar
    37    25     3    1
    38    14     9   ar
    39    27    15   ar
    40    31    16    1
    41    26    18   ar
    42    24    19   ar
    43    34    35    1
    44    30    32    1
@<TRIPOS>MOLECULE
*****
 37 44 0 0 0
SMALL
GASTEIGER

@<TRIPOS>ATOM
      1 C         143.7422  143.5706  163.3359 C.3     1  UNL1        0.0904
      2 C         144.5753  143.5443  162.0890 C.3     1  UNL1        0.0723
      3 C         144.2943  142.6564  160.9084 C.3     1  UNL1        0.2078
      4 O         143.3961  142.6041  162.1086 O.3     1  UNL1       -0.3186
      5 C         142.1829  141.7509  162.3324 C.3     1  UNL1        0.1915
      6 C         141.4931  141.9334  163.6518 C.3     1  UNL1        0.0566
      7 C         142.5459  142.6739  163.4577 C.3     1  UNL1        0.1745
      8 N         141.5681  140.7391  161.4111 N.ar    1  UNL1       -0.3054
      9 C         140.3435  139.9443  161.7556 C.ar    1  UNL1        0.0617
     10 C         139.4708  139.9234  162.9753 C.ar    1  UNL1        0.0172
     11 C         138.2879  139.0030  163.0354 C.ar    1  UNL1        0.0015
     12 C         137.9778  138.1035  161.8758 C.ar    1  UNL1        0.0001
     13 C         138.8506  138.1244  160.6561 C.ar    1  UNL1        0.0015
     14 C         140.0334  139.0448  160.5959 C.ar    1  UNL1        0.0170
     15 C         141.0664  139.2837  159.5348 C.ar    1  UNL1        0.0164
     16 C         141.4571  138.7868  158.0847 C.ar    1  UNL1        0.0033
     17 C         142.6289  139.2893  157.2945 C.ar    1  UNL1        0.0525
     18 C         143.5291  140.3400  157.8739 C.ar    1  UNL1        0.0228
     19 C         144.7552  141.0700  157.4115 C.ar    1  UNL1        0.0174
     20 C         145.5473  140.9966  156.1398 C.ar    1  UNL1        0.0015
     21 C         146.7545  141.8678  155.9568 C.ar    1  UNL1        0.0001
     22 C         147.1698  142.8125  157.0455 C.ar    1  UNL1        0.0015
     23 C         146.3777  142.8858  158.3172 C.ar    1  UNL1        0.0172
     24 C         145.1705  142.0146  158.5003 C.ar    1  UNL1        0.0618
     25 N         144.2010  141.8684  159.6355 N.ar    1  UNL1       -0.3039
     26 C         143.1866  140.8334  159.2484 C.ar    1  UNL1        0.0777
     27 C         142.0149  140.3309  160.0386 C.ar    1  UNL1        0.0773
     28 C         142.6458  138.5669  155.9801 C.2     1  UNL1        0.2459
     29 O         143.6479  138.7596  154.8808 O.2     1  UNL1       -0.2701
     30 N         141.4844  137.6178  155.9580 N.am    1  UNL1       -0.2969
     31 C         140.7498  137.7537  157.2587 C.3     1  UNL1        0.1168
     32 H         141.2461  137.0120  155.2194 H       1  UNL1        0.1501
     33 C         144.8234  143.9614  165.6658 C.3     1  UNL1        0.0859
     34 N         144.1052  144.4936  164.4612 N.3     1  UNL1       -0.2952
     35 H         144.6969  145.2234  164.0642 H       1  UNL1        0.1233
     36 O         141.7126  142.7001  164.7047 O.3     1  UNL1       -0.3478
     37 C         140.3108  143.2319  164.6589 C.3     1  UNL1        0.1743
@<TRIPOS>BOND
     1    33    34    1
     2     1    34    1
     3     1     2    1
     4     3     2    1
     5     3     4    1
     6     4     5    1
     7     5     6    1
     8     5     7    1
     9     7    36    1
    10    36    37    1
    11     5     8    1
    12     8     9   ar
    13     9    10   ar
    14    10    11   ar
    15    11    12   ar
    16    12    13   ar
    17    13    14   ar
    18    14    15   ar
    19    15    16   ar
    20    16    17   ar
    21    17    18   ar
    22    18    19   ar
    23    19    20   ar
    24    20    21   ar
    25    21    22   ar
    26    22    23   ar
    27    23    24   ar
    28    24    25   ar
    29    25    26   ar
    30    26    27   ar
    31    17    28    1
    32    28    29    2
    33    28    30   am
    34    30    31    1
    35     7     1    1
    36    27     8   ar
    37    25     3    1
    38    14     9   ar
    39    27    15   ar
    40    31    16    1
    41    26    18   ar
    42    24    19   ar
    43    34    35    1
    44    30    32    1
@<TRIPOS>MOLECULE
*****
 37 44 0 0 0
SMALL
GASTEIGER

@<TRIPOS>ATOM
      1 C         145.2096  142.6268  158.0970 C.3     1  UNL1        0.0904
      2 C         145.2590  142.7375  159.5920 C.3     1  UNL1        0.0723
      3 C         144.0770  142.5052  160.4919 C.3     1  UNL1        0.2078
      4 O         143.9189  142.3682  159.0066 O.3     1  UNL1       -0.3186
      5 C         142.6883  142.0131  158.2258 C.3     1  UNL1        0.1915
      6 C         142.8564  141.9564  156.7363 C.3     1  UNL1        0.0566
      7 C         143.9242  142.2646  157.4138 C.3     1  UNL1        0.1745
      8 N         141.3118  141.7072  158.7376 N.ar    1  UNL1       -0.3054
      9 C         140.1560  141.3633  157.8455 C.ar    1  UNL1        0.0617
     10 C         140.0414  141.2367  156.3553 C.ar    1  UNL1        0.0172
     11 C         138.7266  140.8713  155.7326 C.ar    1  UNL1        0.0015
     12 C         137.5265  140.6324  156.6002 C.ar    1  UNL1        0.0001
     13 C         137.6412  140.7589  158.0904 C.ar    1  UNL1        0.0015
     14 C         138.9560  141.1243  158.7130 C.ar    1  UNL1        0.0170
     15 C         139.3701  141.3206  160.1413 C.ar    1  UNL1        0.0164
     16 C         138.7635  141.2672  161.6014 C.ar    1  UNL1        0.0033
     17 C         139.5341  141.5403  162.8590 C.ar    1  UNL1        0.0525
     18 C         140.9898  141.8945  162.7845 C.ar    1  UNL1        0.0228
     19 C         142.0615  142.2246  163.7808 C.ar    1  UNL1        0.0174
     20 C         142.0456  142.3194  165.2777 C.ar    1  UNL1        0.0015
     21 C         143.2989  142.6775  166.0199 C.ar    1  UNL1        0.0001
     22 C         144.5682  142.9410  165.2652 C.ar    1  UNL1        0.0015
     23 C         144.5841  142.8462  163.7682 C.ar    1  UNL1        0.0172
     24 C         143.3308  142.4881  163.0261 C.ar    1  UNL1        0.0618
     25 N         143.0435  142.3208  161.5634 N.ar    1  UNL1       -0.3039
     26 C         141.5968  141.9540  161.4141 C.ar    1  UNL1        0.0777
     27 C         140.8261  141.6809  160.1565 C.ar    1  UNL1        0.0773
     28 C         138.5969  141.3855  164.0198 C.2     1  UNL1        0.2459
     29 O         138.9479  141.5675  165.4667 O.2     1  UNL1       -0.2701
     30 N         137.2470  141.0168  163.4796 N.am    1  UNL1       -0.2969
     31 C         137.3500  140.9437  161.9850 C.3     1  UNL1        0.1168
     32 H         136.4358  140.8518  164.0125 H       1  UNL1        0.1501
     33 C         147.7266  143.2573  157.9668 C.3     1  UNL1        0.0859
     34 N         146.4455  142.8782  157.2850 N.3     1  UNL1       -0.2952
     35 H         146.6326  142.0233  156.7611 H       1  UNL1        0.1233
     36 O         143.8747  142.1538  155.9187 O.3     1  UNL1       -0.3478
     37 C         143.6314  140.8220  155.2730 C.3     1  UNL1        0.1743
@<TRIPOS>BOND
     1    33    34    1
     2     1    34    1
     3     1     2    1
     4     3     2    1
     5     3     4    1
     6     4     5    1
     7     5     6    1
     8     5     7    1
     9     7    36    1
    10    36    37    1
    11     5     8    1
    12     8     9   ar
    13     9    10   ar
    14    10    11   ar
    15    11    12   ar
    16    12    13   ar
    17    13    14   ar
    18    14    15   ar
    19    15    16   ar
    20    16    17   ar
    21    17    18   ar
    22    18    19   ar
    23    19    20   ar
    24    20    21   ar
    25    21    22   ar
    26    22    23   ar
    27    23    24   ar
    28    24    25   ar
    29    25    26   ar
    30    26    27   ar
    31    17    28    1
    32    28    29    2
    33    28    30   am
    34    30    31    1
    35     7     1    1
    36    27     8   ar
    37    25     3    1
    38    14     9   ar
    39    27    15   ar
    40    31    16    1
    41    26    18   ar
    42    24    19   ar
    43    34    35    1
    44    30    32    1
@<TRIPOS>MOLECULE
*****
 37 44 0 0 0
SMALL
GASTEIGER

@<TRIPOS>ATOM
      1 C         145.7752  142.4207  157.2621 C.3     1  UNL1        0.0904
      2 C         145.5869  142.7802  158.7061 C.3     1  UNL1        0.0723
      3 C         144.5004  142.2150  159.5786 C.3     1  UNL1        0.2078
      4 O         144.6000  141.7875  158.1442 O.3     1  UNL1       -0.3186
      5 C         143.7310  140.8226  157.3934 C.3     1  UNL1        0.1915
      6 C         144.0931  140.6046  155.9542 C.3     1  UNL1        0.0566
      7 C         144.8473  141.4419  156.6057 C.3     1  UNL1        0.1745
      8 N         142.5476  140.0469  157.8914 N.ar    1  UNL1       -0.3054
      9 C         141.7556  139.1059  157.0328 C.ar    1  UNL1        0.0617
     10 C         141.8908  138.7053  155.5937 C.ar    1  UNL1        0.0172
     11 C         140.9300  137.7208  154.9958 C.ar    1  UNL1        0.0015
     12 C         139.8340  137.1369  155.8370 C.ar    1  UNL1        0.0001
     13 C         139.6988  137.5374  157.2762 C.ar    1  UNL1        0.0015
     14 C         140.6596  138.5219  157.8741 C.ar    1  UNL1        0.0170
     15 C         140.7742  139.1021  159.2526 C.ar    1  UNL1        0.0164
     16 C         140.0644  139.0308  160.6645 C.ar    1  UNL1        0.0033
     17 C         140.4914  139.8035  161.8772 C.ar    1  UNL1        0.0525
     18 C         141.6717  140.7261  161.8014 C.ar    1  UNL1        0.0228
     19 C         142.3803  141.6357  162.7608 C.ar    1  UNL1        0.0174
     20 C         142.1392  141.9535  164.2068 C.ar    1  UNL1        0.0015
     21 C         143.0324  142.9246  164.9203 C.ar    1  UNL1        0.0001
     22 C         144.1668  143.5779  164.1879 C.ar    1  UNL1        0.0015
     23 C         144.4079  143.2601  162.7419 C.ar    1  UNL1        0.0172
     24 C         143.5147  142.2890  162.0284 C.ar    1  UNL1        0.0618
     25 N         143.5071  141.7832  160.6163 N.ar    1  UNL1       -0.3039
     26 C         142.3681  140.8173  160.4760 C.ar    1  UNL1        0.0777
     27 C         141.9411  140.0446  159.2633 C.ar    1  UNL1        0.0773
     28 C         139.5618  139.4534  163.0011 C.2     1  UNL1        0.2459
     29 O         139.6229  139.9969  164.3978 O.2     1  UNL1       -0.2701
     30 N         138.5602  138.4643  162.4829 N.am    1  UNL1       -0.2969
     31 C         138.8709  138.2031  161.0389 C.3     1  UNL1        0.1168
     32 H         137.8275  138.0578  162.9999 H       1  UNL1        0.1501
     33 C         148.0766  142.2119  156.0747 C.3     1  UNL1        0.0859
     34 N         146.8915  143.0399  156.4745 N.3     1  UNL1       -0.2952
     35 H         146.4799  143.3999  155.6134 H       1  UNL1        0.1233
     36 O         145.0356  141.0823  155.1617 O.3     1  UNL1       -0.3478
     37 C         145.3077  139.6594  154.7724 C.3     1  UNL1        0.1743
@<TRIPOS>BOND
     1    33    34    1
     2     1    34    1
     3     1     2    1
     4     3     2    1
     5     3     4    1
     6     4     5    1
     7     5     6    1
     8     5     7    1
     9     7    36    1
    10    36    37    1
    11     5     8    1
    12     8     9   ar
    13     9    10   ar
    14    10    11   ar
    15    11    12   ar
    16    12    13   ar
    17    13    14   ar
    18    14    15   ar
    19    15    16   ar
    20    16    17   ar
    21    17    18   ar
    22    18    19   ar
    23    19    20   ar
    24    20    21   ar
    25    21    22   ar
    26    22    23   ar
    27    23    24   ar
    28    24    25   ar
    29    25    26   ar
    30    26    27   ar
    31    17    28    1
    32    28    29    2
    33    28    30   am
    34    30    31    1
    35     7     1    1
    36    27     8   ar
    37    25     3    1
    38    14     9   ar
    39    27    15   ar
    40    31    16    1
    41    26    18   ar
    42    24    19   ar
    43    34    35    1
    44    30    32    1
