@<TRIPOS>MOLECULE
*****
 35 39 0 0 0
SMALL
GASTEIGER

@<TRIPOS>ATOM
      1 C         139.7424  142.1481  161.0761 C.3     1  UNL1        0.0867
      2 C         140.9650  141.3539  161.4286 C.3     1  UNL1        0.0240
      3 C         140.8251  139.9600  161.9649 C.3     1  UNL1        0.0176
      4 C         139.4626  139.3603  162.1485 C.3     1  UNL1        0.0541
      5 C         138.2399  140.1544  161.7960 C.3     1  UNL1        0.0176
      6 C         138.3798  141.5483  161.2598 C.3     1  UNL1        0.0240
      7 C         139.9374  144.7992  161.3561 C.ar    1  UNL1        0.1445
      8 N         140.0808  145.9575  160.4139 N.ar    1  UNL1       -0.2286
      9 C         140.1143  145.4162  159.0154 C.ar    1  UNL1        0.0993
     10 C         140.2407  146.0898  157.6812 C.ar    1  UNL1        0.0320
     11 C         140.2444  145.2704  156.4248 C.ar    1  UNL1        0.0593
     12 CL        140.3708  145.9440  155.0904 Cl      1  UNL1       -0.0822
     13 C         140.1218  143.7775  156.5026 C.ar    1  UNL1        0.0130
     14 C         139.9954  143.1039  157.8369 C.ar    1  UNL1        0.0196
     15 C         139.9917  143.9232  159.0933 C.ar    1  UNL1        0.0787
     16 N         139.8823  143.5419  160.5399 N.ar    1  UNL1       -0.3149
     17 C         141.3593  144.9435  162.9237 C.3     1  UNL1        0.0371
     18 C         139.8623  144.8834  162.8519 C.3     1  UNL1        0.1383
     19 C         138.3652  144.8232  162.7801 C.3     1  UNL1        0.0371
     20 O         139.7871  144.9675  164.3476 O.3     1  UNL1       -0.3797
     21 H         139.1971  144.2737  164.6813 H       1  UNL1        0.2108
     22 N         139.3227  137.9664  162.6847 N.3     1  UNL1       -0.2985
     23 H         140.2523  137.5472  162.6613 H       1  UNL1        0.1232
     24 C         138.7826  137.7450  164.0665 C.3     1  UNL1        0.0692
     25 C         139.4049  138.4480  165.2364 C.3     1  UNL1        0.0244
     26 C         140.8691  138.7088  165.4313 C.3     1  UNL1        0.0277
     27 C         141.0414  139.4355  166.7321 C.ar    1  UNL1       -0.0260
     28 C         142.2592  139.9501  167.4407 C.ar    1  UNL1       -0.0039
     29 C         142.1192  140.6531  168.7584 C.ar    1  UNL1        0.0099
     30 C         140.7615  140.8415  169.3674 C.ar    1  UNL1        0.0681
     31 C         139.5436  140.3270  168.6588 C.ar    1  UNL1        0.0057
     32 C         139.6837  139.6240  167.3411 C.ar    1  UNL1       -0.0254
     33 C         138.6722  139.0136  166.4167 C.3     1  UNL1        0.0278
     34 C         140.6215  141.5445  170.6850 C.1     1  UNL1        0.1004
     35 N         140.4815  142.2475  172.0027 N.1     1  UNL1       -0.1908
@<TRIPOS>BOND
     1    17    18    1
     2    18    19    1
     3    18    20    1
     4    18     7    1
     5     7     8   ar
     6     8     9   ar
     7     9    10   ar
     8    10    11   ar
     9    11    12    1
    10    11    13   ar
    11    13    14   ar
    12    14    15   ar
    13    15    16   ar
    14     1    16    1
    15     1     2    1
    16     2     3    1
    17     3     4    1
    18     4    22    1
    19    22    24    1
    20    25    24    1
    21    25    26    1
    22    26    27    1
    23    27    28   ar
    24    28    29   ar
    25    29    30   ar
    26    30    34    1
    27    34    35    3
    28    30    31   ar
    29    31    32   ar
    30    32    33    1
    31     4     5    1
    32     5     6    1
    33    16     7   ar
    34     6     1    1
    35    15     9   ar
    36    33    25    1
    37    32    27   ar
    38    20    21    1
    39    22    23    1
@<TRIPOS>MOLECULE
*****
 35 39 0 0 0
SMALL
GASTEIGER

@<TRIPOS>ATOM
      1 C         142.4593  143.2094  161.1232 C.3     1  UNL1        0.0867
      2 C         142.2299  141.7288  161.0517 C.3     1  UNL1        0.0240
      3 C         143.2002  140.7872  161.7013 C.3     1  UNL1        0.0176
      4 C         144.3999  141.3262  162.4224 C.3     1  UNL1        0.0541
      5 C         144.6294  142.8068  162.4939 C.3     1  UNL1        0.0176
      6 C         143.6591  143.7484  161.8444 C.3     1  UNL1        0.0240
      7 C         140.3075  144.7952  161.1363 C.ar    1  UNL1        0.1445
      8 N         139.6182  145.6560  160.1195 N.ar    1  UNL1       -0.2286
      9 C         140.3737  145.5439  158.8285 C.ar    1  UNL1        0.0993
     10 C         140.1582  146.1686  157.4819 C.ar    1  UNL1        0.0320
     11 C         141.0988  145.8631  156.3543 C.ar    1  UNL1        0.0593
     12 CL        140.8833  146.4878  155.0076 Cl      1  UNL1       -0.0822
     13 C         142.2551  144.9329  156.5731 C.ar    1  UNL1        0.0130
     14 C         142.4706  144.3082  157.9197 C.ar    1  UNL1        0.0196
     15 C         141.5299  144.6137  159.0474 C.ar    1  UNL1        0.0787
     16 N         141.4890  144.1510  160.4736 N.ar    1  UNL1       -0.3149
     17 C         138.9483  143.5191  162.1483 C.3     1  UNL1        0.0371
     18 C         139.8889  144.6109  162.5648 C.3     1  UNL1        0.1383
     19 C         140.8294  145.7027  162.9813 C.3     1  UNL1        0.0371
     20 O         139.4702  144.4266  163.9934 O.3     1  UNL1       -0.3797
     21 H         139.2552  145.2893  164.3812 H       1  UNL1        0.2108
     22 N         145.3702  140.3846  163.0720 N.3     1  UNL1       -0.2985
     23 H         146.1038  140.9584  163.4880 H       1  UNL1        0.1232
     24 C         144.9000  139.4419  164.1398 C.3     1  UNL1        0.0692
     25 C         143.8791  139.8930  165.1419 C.3     1  UNL1        0.0244
     26 C         143.6432  141.3066  165.5849 C.3     1  UNL1        0.0277
     27 C         142.5332  141.2969  166.5938 C.ar    1  UNL1       -0.0260
     28 C         141.8741  142.3974  167.3714 C.ar    1  UNL1       -0.0039
     29 C         140.7649  142.0784  168.3295 C.ar    1  UNL1        0.0099
     30 C         140.3148  140.6589  168.5099 C.ar    1  UNL1        0.0681
     31 C         140.9738  139.5585  167.7323 C.ar    1  UNL1        0.0057
     32 C         142.0831  139.8776  166.7742 C.ar    1  UNL1       -0.0254
     33 C         142.9149  139.0099  165.8769 C.3     1  UNL1        0.0278
     34 C         139.2056  140.3399  169.4680 C.1     1  UNL1        0.1004
     35 N         138.0965  140.0209  170.4261 N.1     1  UNL1       -0.1908
@<TRIPOS>BOND
     1    17    18    1
     2    18    19    1
     3    18    20    1
     4    18     7    1
     5     7     8   ar
     6     8     9   ar
     7     9    10   ar
     8    10    11   ar
     9    11    12    1
    10    11    13   ar
    11    13    14   ar
    12    14    15   ar
    13    15    16   ar
    14     1    16    1
    15     1     2    1
    16     2     3    1
    17     3     4    1
    18     4    22    1
    19    22    24    1
    20    25    24    1
    21    25    26    1
    22    26    27    1
    23    27    28   ar
    24    28    29   ar
    25    29    30   ar
    26    30    34    1
    27    34    35    3
    28    30    31   ar
    29    31    32   ar
    30    32    33    1
    31     4     5    1
    32     5     6    1
    33    16     7   ar
    34     6     1    1
    35    15     9   ar
    36    33    25    1
    37    32    27   ar
    38    20    21    1
    39    22    23    1
@<TRIPOS>MOLECULE
*****
 35 39 0 0 0
SMALL
GASTEIGER

@<TRIPOS>ATOM
      1 C         140.4288  140.1279  160.3529 C.3     1  UNL1        0.0867
      2 C         138.9875  139.8058  160.6152 C.3     1  UNL1        0.0240
      3 C         138.0526  140.8801  161.0862 C.3     1  UNL1        0.0176
      4 C         138.5590  142.2765  161.2950 C.3     1  UNL1        0.0541
      5 C         140.0004  142.5986  161.0327 C.3     1  UNL1        0.0176
      6 C         140.9353  141.5243  160.5617 C.3     1  UNL1        0.0240
      7 C         142.3248  138.2834  160.7382 C.ar    1  UNL1        0.1445
      8 N         143.0567  137.3147  159.8574 N.ar    1  UNL1       -0.2286
      9 C         142.5480  137.4861  158.4567 C.ar    1  UNL1        0.0993
     10 C         142.9024  136.8025  157.1695 C.ar    1  UNL1        0.0320
     11 C         142.2104  137.1936  155.8974 C.ar    1  UNL1        0.0593
     12 CL        142.5648  136.5099  154.6101 Cl      1  UNL1       -0.0822
     13 C         141.1641  138.2683  155.9126 C.ar    1  UNL1        0.0130
     14 C         140.8097  138.9519  157.1998 C.ar    1  UNL1        0.0196
     15 C         141.5017  138.5608  158.4719 C.ar    1  UNL1        0.0787
     16 N         141.3637  139.0536  159.8819 N.ar    1  UNL1       -0.3149
     17 C         141.3459  137.5547  162.4733 C.3     1  UNL1        0.0371
     18 C         142.5197  138.4523  162.2159 C.3     1  UNL1        0.1383
     19 C         143.6935  139.3500  161.9584 C.3     1  UNL1        0.0371
     20 O         142.7146  138.6213  163.6935 O.3     1  UNL1       -0.3797
     21 H         142.8070  139.5641  163.9018 H       1  UNL1        0.2108
     22 N         137.6241  143.3508  161.7660 N.3     1  UNL1       -0.2985
     23 H         136.6798  142.9722  161.6930 H       1  UNL1        0.1232
     24 C         137.7608  143.9095  163.1513 C.3     1  UNL1        0.0692
     25 C         138.4677  143.1193  164.2124 C.3     1  UNL1        0.0244
     26 C         138.1348  141.7201  164.6384 C.3     1  UNL1        0.0277
     27 C         139.0930  141.3255  165.7229 C.ar    1  UNL1       -0.0260
     28 C         139.2426  140.0634  166.5197 C.ar    1  UNL1       -0.0039
     29 C         140.3173  139.9566  167.5606 C.ar    1  UNL1        0.0099
     30 C         141.2424  141.1119  167.8048 C.ar    1  UNL1        0.0681
     31 C         141.0928  142.3739  167.0081 C.ar    1  UNL1        0.0057
     32 C         140.0180  142.4807  165.9671 C.ar    1  UNL1       -0.0254
     33 C         139.6316  143.5893  165.0335 C.3     1  UNL1        0.0278
     34 C         142.3171  141.0050  168.8457 C.1     1  UNL1        0.1004
     35 N         143.3919  140.8982  169.8867 N.1     1  UNL1       -0.1908
@<TRIPOS>BOND
     1    17    18    1
     2    18    19    1
     3    18    20    1
     4    18     7    1
     5     7     8   ar
     6     8     9   ar
     7     9    10   ar
     8    10    11   ar
     9    11    12    1
    10    11    13   ar
    11    13    14   ar
    12    14    15   ar
    13    15    16   ar
    14     1    16    1
    15     1     2    1
    16     2     3    1
    17     3     4    1
    18     4    22    1
    19    22    24    1
    20    25    24    1
    21    25    26    1
    22    26    27    1
    23    27    28   ar
    24    28    29   ar
    25    29    30   ar
    26    30    34    1
    27    34    35    3
    28    30    31   ar
    29    31    32   ar
    30    32    33    1
    31     4     5    1
    32     5     6    1
    33    16     7   ar
    34     6     1    1
    35    15     9   ar
    36    33    25    1
    37    32    27   ar
    38    20    21    1
    39    22    23    1
@<TRIPOS>MOLECULE
*****
 35 39 0 0 0
SMALL
GASTEIGER

@<TRIPOS>ATOM
      1 C         141.5406  139.0451  158.9207 C.3     1  UNL1        0.0867
      2 C         141.8445  138.3488  160.2140 C.3     1  UNL1        0.0240
      3 C         140.7963  138.2617  161.2833 C.3     1  UNL1        0.0176
      4 C         139.4440  138.8710  161.0595 C.3     1  UNL1        0.0541
      5 C         139.1400  139.5674  159.7662 C.3     1  UNL1        0.0176
      6 C         140.1883  139.6545  158.6968 C.3     1  UNL1        0.0240
      7 C         142.7687  138.1723  156.7128 C.ar    1  UNL1        0.1445
      8 N         143.9323  138.6414  155.8906 N.ar    1  UNL1       -0.2286
      9 C         144.4716  139.8911  156.5209 C.ar    1  UNL1        0.0993
     10 C         145.6114  140.7921  156.1480 C.ar    1  UNL1        0.0320
     11 C         145.9208  141.9964  156.9869 C.ar    1  UNL1        0.0593
     12 CL        147.0607  142.8974  156.6140 Cl      1  UNL1       -0.0822
     13 C         145.0905  142.2997  158.1988 C.ar    1  UNL1        0.0130
     14 C         143.9507  141.3988  158.5717 C.ar    1  UNL1        0.0196
     15 C         143.6412  140.1945  157.7327 C.ar    1  UNL1        0.0787
     16 N         142.5889  139.1322  157.8513 N.ar    1  UNL1       -0.3149
     17 C         140.9924  137.7861  155.6194 C.3     1  UNL1        0.0371
     18 C         141.9320  136.9568  156.4437 C.3     1  UNL1        0.1383
     19 C         142.8715  136.1275  157.2681 C.3     1  UNL1        0.0371
     20 O         141.0952  135.7413  156.1747 O.3     1  UNL1       -0.3797
     21 H         140.9157  135.2811  157.0095 H       1  UNL1        0.2108
     22 N         138.3958  138.7840  162.1288 N.3     1  UNL1       -0.2985
     23 H         137.6380  138.2142  161.7527 H       1  UNL1        0.1232
     24 C         138.7407  138.2133  163.4725 C.3     1  UNL1        0.0692
     25 C         139.1222  139.1266  164.5996 C.3     1  UNL1        0.0244
     26 C         139.6671  140.5173  164.4616 C.3     1  UNL1        0.0277
     27 C         139.9075  141.0597  165.8393 C.ar    1  UNL1       -0.0260
     28 C         140.4361  142.3784  166.3206 C.ar    1  UNL1       -0.0039
     29 C         140.5684  142.6416  167.7914 C.ar    1  UNL1        0.0099
     30 C         140.1720  141.5862  168.7808 C.ar    1  UNL1        0.0681
     31 C         139.6434  140.2675  168.2995 C.ar    1  UNL1        0.0057
     32 C         139.5112  140.0043  166.8286 C.ar    1  UNL1       -0.0254
     33 C         139.0258  138.8096  166.0625 C.3     1  UNL1        0.0278
     34 C         140.3043  141.8494  170.2516 C.1     1  UNL1        0.1004
     35 N         140.4365  142.1127  171.7224 N.1     1  UNL1       -0.1908
@<TRIPOS>BOND
     1    17    18    1
     2    18    19    1
     3    18    20    1
     4    18     7    1
     5     7     8   ar
     6     8     9   ar
     7     9    10   ar
     8    10    11   ar
     9    11    12    1
    10    11    13   ar
    11    13    14   ar
    12    14    15   ar
    13    15    16   ar
    14     1    16    1
    15     1     2    1
    16     2     3    1
    17     3     4    1
    18     4    22    1
    19    22    24    1
    20    25    24    1
    21    25    26    1
    22    26    27    1
    23    27    28   ar
    24    28    29   ar
    25    29    30   ar
    26    30    34    1
    27    34    35    3
    28    30    31   ar
    29    31    32   ar
    30    32    33    1
    31     4     5    1
    32     5     6    1
    33    16     7   ar
    34     6     1    1
    35    15     9   ar
    36    33    25    1
    37    32    27   ar
    38    20    21    1
    39    22    23    1
@<TRIPOS>MOLECULE
*****
 35 39 0 0 0
SMALL
GASTEIGER

@<TRIPOS>ATOM
      1 C         143.7184  141.4883  159.2728 C.3     1  UNL1        0.0867
      2 C         143.4728  140.0086  159.2632 C.3     1  UNL1        0.0240
      3 C         143.7698  139.1910  160.4852 C.3     1  UNL1        0.0176
      4 C         144.3125  139.8531  161.7169 C.3     1  UNL1        0.0541
      5 C         144.5582  141.3328  161.7265 C.3     1  UNL1        0.0176
      6 C         144.2612  142.1504  160.5045 C.3     1  UNL1        0.0240
      7 C         144.0811  142.1612  156.7114 C.ar    1  UNL1        0.1445
      8 N         143.4800  143.1776  155.7865 N.ar    1  UNL1       -0.2286
      9 C         142.4487  143.9504  156.5541 C.ar    1  UNL1        0.0993
     10 C         141.5380  145.0751  156.1597 C.ar    1  UNL1        0.0320
     11 C         140.5911  145.6610  157.1647 C.ar    1  UNL1        0.0593
     12 CL        139.6802  146.7857  156.7703 Cl      1  UNL1       -0.0822
     13 C         140.5549  145.1222  158.5641 C.ar    1  UNL1        0.0130
     14 C         141.4656  143.9975  158.9586 C.ar    1  UNL1        0.0196
     15 C         142.4125  143.4116  157.9536 C.ar    1  UNL1        0.0787
     16 N         143.4214  142.3059  158.0507 N.ar    1  UNL1       -0.3149
     17 C         146.1892  142.0916  156.9377 C.3     1  UNL1        0.0371
     18 C         145.1537  141.1736  156.3589 C.3     1  UNL1        0.1383
     19 C         144.1182  140.2556  155.7801 C.3     1  UNL1        0.0371
     20 O         146.2262  140.1860  156.0064 O.3     1  UNL1       -0.3797
     21 H         146.1187  139.9075  155.0834 H       1  UNL1        0.2108
     22 N         144.6095  139.0355  162.9389 N.3     1  UNL1       -0.2985
     23 H         145.3911  138.4246  162.7016 H       1  UNL1        0.1232
     24 C         144.9669  139.7152  164.2274 C.3     1  UNL1        0.0692
     25 C         143.8868  140.1210  165.1860 C.3     1  UNL1        0.0244
     26 C         143.4409  141.5249  165.4689 C.3     1  UNL1        0.0277
     27 C         142.3415  141.4656  166.4877 C.ar    1  UNL1       -0.0260
     28 C         141.5230  142.5373  167.1444 C.ar    1  UNL1       -0.0039
     29 C         140.4709  142.1685  168.1479 C.ar    1  UNL1        0.0099
     30 C         140.2374  140.7279  168.4947 C.ar    1  UNL1        0.0681
     31 C         141.0559  139.6562  167.8379 C.ar    1  UNL1        0.0057
     32 C         142.1081  140.0251  166.8344 C.ar    1  UNL1       -0.0254
     33 C         143.0631  139.1941  166.0299 C.3     1  UNL1        0.0278
     34 C         139.1853  140.3590  169.4982 C.1     1  UNL1        0.1004
     35 N         138.1332  139.9902  170.5016 N.1     1  UNL1       -0.1908
@<TRIPOS>BOND
     1    17    18    1
     2    18    19    1
     3    18    20    1
     4    18     7    1
     5     7     8   ar
     6     8     9   ar
     7     9    10   ar
     8    10    11   ar
     9    11    12    1
    10    11    13   ar
    11    13    14   ar
    12    14    15   ar
    13    15    16   ar
    14     1    16    1
    15     1     2    1
    16     2     3    1
    17     3     4    1
    18     4    22    1
    19    22    24    1
    20    25    24    1
    21    25    26    1
    22    26    27    1
    23    27    28   ar
    24    28    29   ar
    25    29    30   ar
    26    30    34    1
    27    34    35    3
    28    30    31   ar
    29    31    32   ar
    30    32    33    1
    31     4     5    1
    32     5     6    1
    33    16     7   ar
    34     6     1    1
    35    15     9   ar
    36    33    25    1
    37    32    27   ar
    38    20    21    1
    39    22    23    1
@<TRIPOS>MOLECULE
*****
 35 39 0 0 0
SMALL
GASTEIGER

@<TRIPOS>ATOM
      1 C         140.5702  139.8176  159.6028 C.3     1  UNL1        0.0867
      2 C         140.0868  138.8425  160.6350 C.3     1  UNL1        0.0240
      3 C         138.9294  139.1993  161.5200 C.3     1  UNL1        0.0176
      4 C         138.2554  140.5312  161.3728 C.3     1  UNL1        0.0541
      5 C         138.7387  141.5063  160.3406 C.3     1  UNL1        0.0176
      6 C         139.8961  141.1496  159.4556 C.3     1  UNL1        0.0240
      7 C         143.1157  140.0213  158.8129 C.ar    1  UNL1        0.1445
      8 N         143.9460  139.3878  157.7362 N.ar    1  UNL1       -0.2286
      9 C         143.0711  138.4359  156.9757 C.ar    1  UNL1        0.0993
     10 C         143.3457  137.5339  155.8092 C.ar    1  UNL1        0.0320
     11 C         142.2493  136.6770  155.2493 C.ar    1  UNL1        0.0593
     12 CL        142.5239  135.7749  154.0827 Cl      1  UNL1       -0.0822
     13 C         140.8782  136.7221  155.8560 C.ar    1  UNL1        0.0130
     14 C         140.6035  137.6242  157.0225 C.ar    1  UNL1        0.0196
     15 C         141.7000  138.4811  157.5824 C.ar    1  UNL1        0.0787
     16 N         141.7276  139.4609  158.7178 N.ar    1  UNL1       -0.3149
     17 C         143.3639  142.1280  158.8056 C.3     1  UNL1        0.0371
     18 C         143.5902  141.0369  159.8097 C.3     1  UNL1        0.1383
     19 C         143.8164  139.9457  160.8137 C.3     1  UNL1        0.0371
     20 O         144.0646  142.0524  160.8064 O.3     1  UNL1       -0.3797
     21 H         144.9033  141.7574  161.1944 H       1  UNL1        0.2108
     22 N         137.0980  140.8879  162.2577 N.3     1  UNL1       -0.2985
     23 H         136.8082  140.0284  162.7243 H       1  UNL1        0.1232
     24 C         137.2639  141.9265  163.3273 C.3     1  UNL1        0.0692
     25 C         138.2575  141.7145  164.4308 C.3     1  UNL1        0.0244
     26 C         138.3887  140.4809  165.2740 C.3     1  UNL1        0.0277
     27 C         139.5067  140.7028  166.2492 C.ar    1  UNL1       -0.0260
     28 C         140.0873  139.8338  167.3251 C.ar    1  UNL1       -0.0039
     29 C         141.2276  140.3355  168.1605 C.ar    1  UNL1        0.0099
     30 C         141.7874  141.7062  167.9200 C.ar    1  UNL1        0.0681
     31 C         141.2068  142.5753  166.8440 C.ar    1  UNL1        0.0057
     32 C         140.0664  142.0735  166.0086 C.ar    1  UNL1       -0.0254
     33 C         139.2943  142.6987  164.8848 C.3     1  UNL1        0.0278
     34 C         142.9277  142.2079  168.7553 C.1     1  UNL1        0.1004
     35 N         144.0681  142.7096  169.5907 N.1     1  UNL1       -0.1908
@<TRIPOS>BOND
     1    17    18    1
     2    18    19    1
     3    18    20    1
     4    18     7    1
     5     7     8   ar
     6     8     9   ar
     7     9    10   ar
     8    10    11   ar
     9    11    12    1
    10    11    13   ar
    11    13    14   ar
    12    14    15   ar
    13    15    16   ar
    14     1    16    1
    15     1     2    1
    16     2     3    1
    17     3     4    1
    18     4    22    1
    19    22    24    1
    20    25    24    1
    21    25    26    1
    22    26    27    1
    23    27    28   ar
    24    28    29   ar
    25    29    30   ar
    26    30    34    1
    27    34    35    3
    28    30    31   ar
    29    31    32   ar
    30    32    33    1
    31     4     5    1
    32     5     6    1
    33    16     7   ar
    34     6     1    1
    35    15     9   ar
    36    33    25    1
    37    32    27   ar
    38    20    21    1
    39    22    23    1
@<TRIPOS>MOLECULE
*****
 35 39 0 0 0
SMALL
GASTEIGER

@<TRIPOS>ATOM
      1 C         142.6390  141.0520  159.9494 C.3     1  UNL1        0.0867
      2 C         141.3810  141.8629  160.0490 C.3     1  UNL1        0.0240
      3 C         141.3855  143.1660  160.7917 C.3     1  UNL1        0.0176
      4 C         142.6479  143.6584  161.4350 C.3     1  UNL1        0.0541
      5 C         143.9060  142.8475  161.3355 C.3     1  UNL1        0.0176
      6 C         143.9015  141.5443  160.5927 C.3     1  UNL1        0.0240
      7 C         142.5947  138.3823  159.8239 C.ar    1  UNL1        0.1445
      8 N         142.6047  137.3723  158.7150 N.ar    1  UNL1       -0.2286
      9 C         142.6506  138.1146  157.4123 C.ar    1  UNL1        0.0993
     10 C         142.6781  137.6429  155.9887 C.ar    1  UNL1        0.0320
     11 C         142.7239  138.6399  154.8690 C.ar    1  UNL1        0.0593
     12 CL        142.7514  138.1682  153.4453 Cl      1  UNL1       -0.0822
     13 C         142.7424  140.1087  155.1729 C.ar    1  UNL1        0.0130
     14 C         142.7149  140.5804  156.5965 C.ar    1  UNL1        0.0196
     15 C         142.6691  139.5834  157.7162 C.ar    1  UNL1        0.0787
     16 N         142.6345  139.7488  159.2067 N.ar    1  UNL1       -0.3149
     17 C         141.0577  138.2038  161.2750 C.3     1  UNL1        0.0371
     18 C         142.5524  138.0790  161.2923 C.3     1  UNL1        0.1383
     19 C         144.0471  137.9542  161.3097 C.3     1  UNL1        0.0371
     20 O         142.5101  137.7757  162.7608 O.3     1  UNL1       -0.3797
     21 H         143.1542  138.3332  163.2247 H       1  UNL1        0.2108
     22 N         142.6524  144.9616  162.1777 N.3     1  UNL1       -0.2985
     23 H         141.8804  145.5150  161.8060 H       1  UNL1        0.1232
     24 C         142.5143  144.9741  163.6713 C.3     1  UNL1        0.0692
     25 C         141.9856  143.7656  164.3857 C.3     1  UNL1        0.0244
     26 C         142.7992  142.7782  165.1687 C.3     1  UNL1        0.0277
     27 C         141.8670  141.7349  165.7094 C.ar    1  UNL1       -0.0260
     28 C         142.1041  140.5171  166.5525 C.ar    1  UNL1       -0.0039
     29 C         140.9515  139.6419  166.9468 C.ar    1  UNL1        0.0099
     30 C         139.5618  139.9844  166.4979 C.ar    1  UNL1        0.0681
     31 C         139.3247  141.2022  165.6549 C.ar    1  UNL1        0.0057
     32 C         140.4774  142.0774  165.2606 C.ar    1  UNL1       -0.0254
     33 C         140.5507  143.3325  164.4425 C.3     1  UNL1        0.0278
     34 C         138.4092  139.1092  166.8922 C.1     1  UNL1        0.1004
     35 N         137.2566  138.2340  167.2865 N.1     1  UNL1       -0.1908
@<TRIPOS>BOND
     1    17    18    1
     2    18    19    1
     3    18    20    1
     4    18     7    1
     5     7     8   ar
     6     8     9   ar
     7     9    10   ar
     8    10    11   ar
     9    11    12    1
    10    11    13   ar
    11    13    14   ar
    12    14    15   ar
    13    15    16   ar
    14     1    16    1
    15     1     2    1
    16     2     3    1
    17     3     4    1
    18     4    22    1
    19    22    24    1
    20    25    24    1
    21    25    26    1
    22    26    27    1
    23    27    28   ar
    24    28    29   ar
    25    29    30   ar
    26    30    34    1
    27    34    35    3
    28    30    31   ar
    29    31    32   ar
    30    32    33    1
    31     4     5    1
    32     5     6    1
    33    16     7   ar
    34     6     1    1
    35    15     9   ar
    36    33    25    1
    37    32    27   ar
    38    20    21    1
    39    22    23    1
@<TRIPOS>MOLECULE
*****
 35 39 0 0 0
SMALL
GASTEIGER

@<TRIPOS>ATOM
      1 C         140.9641  140.2602  161.0366 C.3     1  UNL1        0.0867
      2 C         142.4041  140.4409  160.6578 C.3     1  UNL1        0.0240
      3 C         142.8367  140.2392  159.2358 C.3     1  UNL1        0.0176
      4 C         141.8292  139.8568  158.1924 C.3     1  UNL1        0.0541
      5 C         140.3891  139.6761  158.5711 C.3     1  UNL1        0.0176
      6 C         139.9565  139.8778  159.9931 C.3     1  UNL1        0.0240
      7 C         140.4830  139.4066  163.5235 C.ar    1  UNL1        0.1445
      8 N         139.9930  140.0468  164.7884 N.ar    1  UNL1       -0.2286
      9 C         139.7388  141.4977  164.5053 C.ar    1  UNL1        0.0993
     10 C         139.2472  142.6184  165.3727 C.ar    1  UNL1        0.0320
     11 C         139.0885  143.9957  164.8001 C.ar    1  UNL1        0.0593
     12 CL        138.5969  145.1165  165.6674 Cl      1  UNL1       -0.0822
     13 C         139.4213  144.2522  163.3601 C.ar    1  UNL1        0.0130
     14 C         139.9129  143.1315  162.4928 C.ar    1  UNL1        0.0196
     15 C         140.0716  141.7543  163.0654 C.ar    1  UNL1        0.0787
     16 N         140.5315  140.4618  162.4586 N.ar    1  UNL1       -0.3149
     17 C         142.2705  138.2858  163.7440 C.3     1  UNL1        0.0371
     18 C         140.8584  137.9643  163.3533 C.3     1  UNL1        0.1383
     19 C         139.4463  137.6428  162.9627 C.3     1  UNL1        0.0371
     20 O         141.2339  136.5221  163.1832 O.3     1  UNL1       -0.3797
     21 H         140.9051  136.2010  162.3289 H       1  UNL1        0.2108
     22 N         142.2617  139.6552  156.7703 N.3     1  UNL1       -0.2985
     23 H         143.2383  139.3620  156.7984 H       1  UNL1        0.1232
     24 C         141.5391  138.6711  155.8990 C.3     1  UNL1        0.0692
     25 C         141.8305  137.2048  156.0222 C.3     1  UNL1        0.0244
     26 C         141.1498  136.1039  155.2641 C.3     1  UNL1        0.0277
     27 C         141.7524  134.8008  155.6985 C.ar    1  UNL1       -0.0260
     28 C         141.4782  133.3832  155.2919 C.ar    1  UNL1       -0.0039
     29 C         142.2571  132.2612  155.9118 C.ar    1  UNL1        0.0099
     30 C         143.3102  132.5566  156.9383 C.ar    1  UNL1        0.0681
     31 C         143.5844  133.9742  157.3448 C.ar    1  UNL1        0.0057
     32 C         142.8054  135.0963  156.7249 C.ar    1  UNL1       -0.0254
     33 C         142.8537  136.5821  156.9249 C.3     1  UNL1        0.0278
     34 C         144.0891  131.4346  157.5581 C.1     1  UNL1        0.1004
     35 N         144.8680  130.3125  158.1780 N.1     1  UNL1       -0.1908
@<TRIPOS>BOND
     1    17    18    1
     2    18    19    1
     3    18    20    1
     4    18     7    1
     5     7     8   ar
     6     8     9   ar
     7     9    10   ar
     8    10    11   ar
     9    11    12    1
    10    11    13   ar
    11    13    14   ar
    12    14    15   ar
    13    15    16   ar
    14     1    16    1
    15     1     2    1
    16     2     3    1
    17     3     4    1
    18     4    22    1
    19    22    24    1
    20    25    24    1
    21    25    26    1
    22    26    27    1
    23    27    28   ar
    24    28    29   ar
    25    29    30   ar
    26    30    34    1
    27    34    35    3
    28    30    31   ar
    29    31    32   ar
    30    32    33    1
    31     4     5    1
    32     5     6    1
    33    16     7   ar
    34     6     1    1
    35    15     9   ar
    36    33    25    1
    37    32    27   ar
    38    20    21    1
    39    22    23    1
@<TRIPOS>MOLECULE
*****
 35 39 0 0 0
SMALL
GASTEIGER

@<TRIPOS>ATOM
      1 C         140.6580  141.7337  160.2874 C.3     1  UNL1        0.0867
      2 C         140.2650  142.1212  161.6821 C.3     1  UNL1        0.0240
      3 C         139.4073  141.2035  162.5020 C.3     1  UNL1        0.0176
      4 C         138.9425  139.8984  161.9271 C.3     1  UNL1        0.0541
      5 C         139.3354  139.5108  160.5324 C.3     1  UNL1        0.0176
      6 C         140.1931  140.4285  159.7124 C.3     1  UNL1        0.0240
      7 C         142.9970  142.8375  159.6124 C.ar    1  UNL1        0.1445
      8 N         143.4395  143.8451  158.5931 N.ar    1  UNL1       -0.2286
      9 C         142.2316  144.2818  157.8183 C.ar    1  UNL1        0.0993
     10 C         142.0608  145.2559  156.6905 C.ar    1  UNL1        0.0320
     11 C         140.7010  145.4921  156.1031 C.ar    1  UNL1        0.0593
     12 CL        140.5302  146.4663  154.9752 Cl      1  UNL1       -0.0822
     13 C         139.5120  144.7544  156.6434 C.ar    1  UNL1        0.0130
     14 C         139.6828  143.7803  157.7712 C.ar    1  UNL1        0.0196
     15 C         141.0426  143.5440  158.3586 C.ar    1  UNL1        0.0787
     16 N         141.5157  142.6514  159.4674 N.ar    1  UNL1       -0.3149
     17 C         143.8004  143.3277  161.5135 C.3     1  UNL1        0.0371
     18 C         143.8807  142.1386  160.6027 C.3     1  UNL1        0.1383
     19 C         143.9610  140.9495  159.6919 C.3     1  UNL1        0.0371
     20 O         144.7644  141.4398  161.5930 O.3     1  UNL1       -0.3797
     21 H         145.5430  141.0839  161.1368 H       1  UNL1        0.2108
     22 N         138.0847  138.9807  162.7471 N.3     1  UNL1       -0.2985
     23 H         137.5905  138.3755  162.0914 H       1  UNL1        0.1232
     24 C         138.7125  138.0855  163.7739 C.3     1  UNL1        0.0692
     25 C         139.3617  138.6782  164.9893 C.3     1  UNL1        0.0244
     26 C         140.8373  138.8028  165.2284 C.3     1  UNL1        0.0277
     27 C         141.0369  139.4520  166.5658 C.ar    1  UNL1       -0.0260
     28 C         142.2753  139.8270  167.3246 C.ar    1  UNL1       -0.0039
     29 C         142.1615  140.4786  168.6709 C.ar    1  UNL1        0.0099
     30 C         140.8093  140.7551  169.2584 C.ar    1  UNL1        0.0681
     31 C         139.5709  140.3801  168.4996 C.ar    1  UNL1        0.0057
     32 C         139.6848  139.7285  167.1533 C.ar    1  UNL1       -0.0254
     33 C         138.6494  139.2503  166.1789 C.3     1  UNL1        0.0278
     34 C         140.6955  141.4067  170.6047 C.1     1  UNL1        0.1004
     35 N         140.5817  142.0583  171.9509 N.1     1  UNL1       -0.1908
@<TRIPOS>BOND
     1    17    18    1
     2    18    19    1
     3    18    20    1
     4    18     7    1
     5     7     8   ar
     6     8     9   ar
     7     9    10   ar
     8    10    11   ar
     9    11    12    1
    10    11    13   ar
    11    13    14   ar
    12    14    15   ar
    13    15    16   ar
    14     1    16    1
    15     1     2    1
    16     2     3    1
    17     3     4    1
    18     4    22    1
    19    22    24    1
    20    25    24    1
    21    25    26    1
    22    26    27    1
    23    27    28   ar
    24    28    29   ar
    25    29    30   ar
    26    30    34    1
    27    34    35    3
    28    30    31   ar
    29    31    32   ar
    30    32    33    1
    31     4     5    1
    32     5     6    1
    33    16     7   ar
    34     6     1    1
    35    15     9   ar
    36    33    25    1
    37    32    27   ar
    38    20    21    1
    39    22    23    1
