@<TRIPOS>MOLECULE
*****
 22 24 0 0 0
SMALL
GASTEIGER

@<TRIPOS>ATOM
      1 C         139.8407  144.3838  162.4045 C.ar    1  UNL1        0.1416
      2 C         140.2777  143.1941  163.2067 C.ar    1  UNL1        0.1089
      3 N         139.7129  143.3344  164.5892 N.ar    1  UNL1       -0.2918
      4 C         138.9268  144.6109  164.6415 C.ar    1  UNL1        0.1253
      5 C         138.1909  145.1450  165.8344 C.3     1  UNL1        0.0722
      6 N         139.0058  145.2595  163.2912 N.ar    1  UNL1       -0.2223
      7 C         139.9010  142.3679  165.7207 C.ar    1  UNL1        0.0653
      8 C         140.7069  142.7666  166.9214 C.ar    1  UNL1        0.0199
      9 C         140.8952  141.8001  168.0530 C.ar    1  UNL1        0.0311
     10 C         140.2774  140.4349  167.9839 C.ar    1  UNL1        0.1402
     11 F         140.4656  139.4684  169.1155 F       1  UNL1       -0.2042
     12 C         139.4715  140.0363  166.7833 C.ar    1  UNL1        0.0311
     13 C         139.2833  141.0027  165.6517 C.ar    1  UNL1        0.0199
     14 C         140.5178  144.9184  159.5312 C.1     1  UNL1       -0.0581
     15 C         140.1792  144.6511  160.9678 C.1     1  UNL1       -0.0389
     16 C         139.6277  147.4821  155.1000 C.3     1  UNL1        0.0521
     17 C         140.4112  146.4675  155.8789 C.ar    1  UNL1        0.0600
     18 C         140.0727  146.2002  157.3156 C.ar    1  UNL1        0.0230
     19 C         140.8563  145.1856  158.0945 C.ar    1  UNL1        0.0447
     20 C         141.9782  144.4383  157.4368 C.ar    1  UNL1        0.0289
     21 C         142.3167  144.7056  156.0001 C.ar    1  UNL1        0.0991
     22 N         141.5331  145.7202  155.2212 N.ar    1  UNL1       -0.2481
@<TRIPOS>BOND
     1    16    17    1
     2    17    18   ar
     3    18    19   ar
     4    19    14    1
     5    14    15    3
     6    15     1    1
     7     1     2   ar
     8     2     3   ar
     9     3     7    1
    10     7     8   ar
    11     8     9   ar
    12     9    10   ar
    13    10    11    1
    14    10    12   ar
    15    12    13   ar
    16     3     4   ar
    17     4     5    1
    18     4     6   ar
    19    19    20   ar
    20    20    21   ar
    21    21    22   ar
    22    22    17   ar
    23     6     1   ar
    24    13     7   ar
@<TRIPOS>MOLECULE
*****
 22 24 0 0 0
SMALL
GASTEIGER

@<TRIPOS>ATOM
      1 C         139.0418  143.0039  160.7100 C.ar    1  UNL1        0.1416
      2 C         140.4591  142.9566  161.1991 C.ar    1  UNL1        0.1089
      3 N         140.4895  143.5233  162.5876 N.ar    1  UNL1       -0.2918
      4 C         139.0910  143.9209  162.9567 C.ar    1  UNL1        0.1253
      5 C         138.6625  144.5322  164.2577 C.3     1  UNL1        0.0722
      6 N         138.1962  143.5999  161.7962 N.ar    1  UNL1       -0.2223
      7 C         141.7049  143.6671  163.4547 C.ar    1  UNL1        0.0653
      8 C         142.6005  144.8603  163.2987 C.ar    1  UNL1        0.0199
      9 C         143.8160  145.0042  164.1658 C.ar    1  UNL1        0.0311
     10 C         144.1359  143.9549  165.1889 C.ar    1  UNL1        0.1402
     11 F         145.3514  144.0988  166.0561 F       1  UNL1       -0.2042
     12 C         143.2403  142.7618  165.3449 C.ar    1  UNL1        0.0311
     13 C         142.0249  142.6179  164.4778 C.ar    1  UNL1        0.0199
     14 C         138.0691  142.0705  158.0300 C.1     1  UNL1       -0.0581
     15 C         138.5554  142.5372  159.3700 C.1     1  UNL1       -0.0389
     16 C         134.3563  139.9454  155.0805 C.3     1  UNL1        0.0521
     17 C         135.7263  140.5413  155.2152 C.ar    1  UNL1        0.0600
     18 C         136.2127  141.0080  156.5552 C.ar    1  UNL1        0.0230
     19 C         137.5827  141.6038  156.6899 C.ar    1  UNL1        0.0447
     20 C         138.4663  141.7329  155.4847 C.ar    1  UNL1        0.0289
     21 C         137.9798  141.2662  154.1448 C.ar    1  UNL1        0.0991
     22 N         136.6099  140.6704  154.0100 N.ar    1  UNL1       -0.2481
@<TRIPOS>BOND
     1    16    17    1
     2    17    18   ar
     3    18    19   ar
     4    19    14    1
     5    14    15    3
     6    15     1    1
     7     1     2   ar
     8     2     3   ar
     9     3     7    1
    10     7     8   ar
    11     8     9   ar
    12     9    10   ar
    13    10    11    1
    14    10    12   ar
    15    12    13   ar
    16     3     4   ar
    17     4     5    1
    18     4     6   ar
    19    19    20   ar
    20    20    21   ar
    21    21    22   ar
    22    22    17   ar
    23     6     1   ar
    24    13     7   ar
@<TRIPOS>MOLECULE
*****
 22 24 0 0 0
SMALL
GASTEIGER

@<TRIPOS>ATOM
      1 C         140.6403  139.2101  161.3084 C.ar    1  UNL1        0.1416
      2 C         140.5157  140.6419  161.7378 C.ar    1  UNL1        0.1089
      3 N         139.7394  140.6751  163.0209 N.ar    1  UNL1       -0.2918
      4 C         139.3843  139.2638  163.3845 C.ar    1  UNL1        0.1253
      5 C         138.6086  138.8335  164.5941 C.3     1  UNL1        0.0722
      6 N         139.9411  138.3583  162.3261 N.ar    1  UNL1       -0.2223
      7 C         139.3811  141.9038  163.8030 C.ar    1  UNL1        0.0653
      8 C         138.0936  142.6212  163.5245 C.ar    1  UNL1        0.0199
      9 C         137.7353  143.8500  164.3066 C.ar    1  UNL1        0.0311
     10 C         138.6646  144.3613  165.3674 C.ar    1  UNL1        0.1402
     11 F         138.3063  145.5901  166.1495 F       1  UNL1       -0.2042
     12 C         139.9521  143.6439  165.6459 C.ar    1  UNL1        0.0311
     13 C         140.3103  142.4152  164.8637 C.ar    1  UNL1        0.0199
     14 C         142.0420  138.2231  158.8465 C.1     1  UNL1       -0.0581
     15 C         141.3412  138.7166  160.0774 C.1     1  UNL1       -0.0389
     16 C         143.7247  134.2891  155.8982 C.3     1  UNL1        0.0521
     17 C         143.5842  135.7626  156.1414 C.ar    1  UNL1        0.0600
     18 C         142.8834  136.2561  157.3723 C.ar    1  UNL1        0.0230
     19 C         142.7429  137.7296  157.6155 C.ar    1  UNL1        0.0447
     20 C         143.3032  138.7095  156.6277 C.ar    1  UNL1        0.0289
     21 C         144.0040  138.2160  155.3968 C.ar    1  UNL1        0.0991
     22 N         144.1445  136.7425  155.1536 N.ar    1  UNL1       -0.2481
@<TRIPOS>BOND
     1    16    17    1
     2    17    18   ar
     3    18    19   ar
     4    19    14    1
     5    14    15    3
     6    15     1    1
     7     1     2   ar
     8     2     3   ar
     9     3     7    1
    10     7     8   ar
    11     8     9   ar
    12     9    10   ar
    13    10    11    1
    14    10    12   ar
    15    12    13   ar
    16     3     4   ar
    17     4     5    1
    18     4     6   ar
    19    19    20   ar
    20    20    21   ar
    21    21    22   ar
    22    22    17   ar
    23     6     1   ar
    24    13     7   ar
@<TRIPOS>MOLECULE
*****
 22 24 0 0 0
SMALL
GASTEIGER

@<TRIPOS>ATOM
      1 C         139.3658  139.0135  160.7308 C.ar    1  UNL1        0.1416
      2 C         139.3114  140.4577  161.1323 C.ar    1  UNL1        0.1089
      3 N         139.0500  140.5190  162.6081 N.ar    1  UNL1       -0.2918
      4 C         138.9428  139.1125  163.1187 C.ar    1  UNL1        0.1253
      5 C         138.6856  138.7077  164.5399 C.3     1  UNL1        0.0722
      6 N         139.1380  138.1821  161.9584 N.ar    1  UNL1       -0.2223
      7 C         138.9188  141.7673  163.4291 C.ar    1  UNL1        0.0653
      8 C         137.7658  142.6988  163.1988 C.ar    1  UNL1        0.0199
      9 C         137.6345  143.9472  164.0198 C.ar    1  UNL1        0.0311
     10 C         138.6563  144.2643  165.0713 C.ar    1  UNL1        0.1402
     11 F         138.5251  145.5127  165.8924 F       1  UNL1       -0.2042
     12 C         139.8093  143.3328  165.3016 C.ar    1  UNL1        0.0311
     13 C         139.9405  142.0844  164.4806 C.ar    1  UNL1        0.0199
     14 C         139.8460  137.9707  157.9591 C.1     1  UNL1       -0.0581
     15 C         139.6059  138.4921  159.3449 C.1     1  UNL1       -0.0389
     16 C         142.8508  135.4320  154.5641 C.3     1  UNL1        0.0521
     17 C         141.5885  136.1799  154.8758 C.ar    1  UNL1        0.0600
     18 C         141.3484  136.7013  156.2616 C.ar    1  UNL1        0.0230
     19 C         140.0861  137.4493  156.5733 C.ar    1  UNL1        0.0447
     20 C         139.0639  137.6758  155.4992 C.ar    1  UNL1        0.0289
     21 C         139.3040  137.1544  154.1134 C.ar    1  UNL1        0.0991
     22 N         140.5663  136.4065  153.8017 N.ar    1  UNL1       -0.2481
@<TRIPOS>BOND
     1    16    17    1
     2    17    18   ar
     3    18    19   ar
     4    19    14    1
     5    14    15    3
     6    15     1    1
     7     1     2   ar
     8     2     3   ar
     9     3     7    1
    10     7     8   ar
    11     8     9   ar
    12     9    10   ar
    13    10    11    1
    14    10    12   ar
    15    12    13   ar
    16     3     4   ar
    17     4     5    1
    18     4     6   ar
    19    19    20   ar
    20    20    21   ar
    21    21    22   ar
    22    22    17   ar
    23     6     1   ar
    24    13     7   ar
@<TRIPOS>MOLECULE
*****
 22 24 0 0 0
SMALL
GASTEIGER

@<TRIPOS>ATOM
      1 C         142.0352  143.7207  161.1674 C.ar    1  UNL1        0.1416
      2 C         142.0849  142.3251  161.7150 C.ar    1  UNL1        0.1089
      3 N         142.8893  142.3522  162.9807 N.ar    1  UNL1       -0.2918
      4 C         143.3368  143.7645  163.2155 C.ar    1  UNL1        0.1253
      5 C         144.1665  144.2464  164.3685 C.3     1  UNL1        0.0722
      6 N         142.8089  144.6104  162.0947 N.ar    1  UNL1       -0.2223
      7 C         143.1929  141.1738  163.8577 C.ar    1  UNL1        0.0653
      8 C         144.5087  140.4647  163.7321 C.ar    1  UNL1        0.0199
      9 C         144.8125  139.2863  164.6091 C.ar    1  UNL1        0.0311
     10 C         143.8002  138.8170  165.6118 C.ar    1  UNL1        0.1402
     11 F         144.1039  137.6386  166.4889 F       1  UNL1       -0.2042
     12 C         142.4845  139.5262  165.7375 C.ar    1  UNL1        0.0311
     13 C         142.1809  140.7045  164.8605 C.ar    1  UNL1        0.0199
     14 C         140.6343  144.5817  158.6582 C.1     1  UNL1       -0.0581
     15 C         141.3347  144.1512  159.9128 C.1     1  UNL1       -0.0389
     16 C         139.0338  148.3574  155.4671 C.3     1  UNL1        0.0521
     17 C         139.1336  146.9000  155.8080 C.ar    1  UNL1        0.0600
     18 C         139.8340  146.4695  157.0626 C.ar    1  UNL1        0.0230
     19 C         139.9339  145.0122  157.4035 C.ar    1  UNL1        0.0447
     20 C         139.3333  143.9854  156.4898 C.ar    1  UNL1        0.0289
     21 C         138.6329  144.4159  155.2352 C.ar    1  UNL1        0.0991
     22 N         138.5331  145.8732  154.8943 N.ar    1  UNL1       -0.2481
@<TRIPOS>BOND
     1    16    17    1
     2    17    18   ar
     3    18    19   ar
     4    19    14    1
     5    14    15    3
     6    15     1    1
     7     1     2   ar
     8     2     3   ar
     9     3     7    1
    10     7     8   ar
    11     8     9   ar
    12     9    10   ar
    13    10    11    1
    14    10    12   ar
    15    12    13   ar
    16     3     4   ar
    17     4     5    1
    18     4     6   ar
    19    19    20   ar
    20    20    21   ar
    21    21    22   ar
    22    22    17   ar
    23     6     1   ar
    24    13     7   ar
@<TRIPOS>MOLECULE
*****
 22 24 0 0 0
SMALL
GASTEIGER

@<TRIPOS>ATOM
      1 C         140.4579  139.4787  163.8080 C.ar    1  UNL1        0.1416
      2 C         140.8272  140.4136  164.9213 C.ar    1  UNL1        0.1089
      3 N         139.9178  140.1352  166.0812 N.ar    1  UNL1       -0.2918
      4 C         138.9864  139.0282  165.6848 C.ar    1  UNL1        0.1253
      5 C         137.9102  138.4317  166.5427 C.3     1  UNL1        0.0722
      6 N         139.3203  138.6224  164.2798 N.ar    1  UNL1       -0.2223
      7 C         139.9364  140.8401  167.4051 C.ar    1  UNL1        0.0653
      8 C         139.4485  140.1361  168.6365 C.ar    1  UNL1        0.0199
      9 C         139.4671  140.8409  169.9605 C.ar    1  UNL1        0.0311
     10 C         139.9736  142.2498  170.0530 C.ar    1  UNL1        0.1402
     11 F         139.9923  142.9547  171.3769 F       1  UNL1       -0.2042
     12 C         140.4616  142.9538  168.8216 C.ar    1  UNL1        0.0311
     13 C         140.4429  142.2489  167.4977 C.ar    1  UNL1        0.0199
     14 C         141.7651  139.3447  161.1110 C.1     1  UNL1       -0.0581
     15 C         141.1115  139.4117  162.4595 C.1     1  UNL1       -0.0389
     16 C         144.8752  141.4313  157.5091 C.3     1  UNL1        0.0521
     17 C         143.9737  140.3211  157.9616 C.ar    1  UNL1        0.0600
     18 C         143.3201  140.3880  159.3100 C.ar    1  UNL1        0.0230
     19 C         142.4187  139.2777  159.7625 C.ar    1  UNL1        0.0447
     20 C         142.1709  138.1005  158.8666 C.ar    1  UNL1        0.0289
     21 C         142.8245  138.0336  157.5182 C.ar    1  UNL1        0.0991
     22 N         143.7259  139.1438  157.0657 N.ar    1  UNL1       -0.2481
@<TRIPOS>BOND
     1    16    17    1
     2    17    18   ar
     3    18    19   ar
     4    19    14    1
     5    14    15    3
     6    15     1    1
     7     1     2   ar
     8     2     3   ar
     9     3     7    1
    10     7     8   ar
    11     8     9   ar
    12     9    10   ar
    13    10    11    1
    14    10    12   ar
    15    12    13   ar
    16     3     4   ar
    17     4     5    1
    18     4     6   ar
    19    19    20   ar
    20    20    21   ar
    21    21    22   ar
    22    22    17   ar
    23     6     1   ar
    24    13     7   ar
@<TRIPOS>MOLECULE
*****
 22 24 0 0 0
SMALL
GASTEIGER

@<TRIPOS>ATOM
      1 C         140.2747  143.5343  164.3553 C.ar    1  UNL1        0.1416
      2 C         140.2291  142.7232  163.0943 C.ar    1  UNL1        0.1089
      3 N         139.9967  143.6618  161.9476 N.ar    1  UNL1       -0.2918
      4 C         139.8988  145.0530  162.4998 C.ar    1  UNL1        0.1253
      5 C         139.6694  146.3035  161.7038 C.3     1  UNL1        0.0722
      6 N         140.0706  144.9742  163.9879 N.ar    1  UNL1       -0.2223
      7 C         139.8824  143.2768  160.5024 C.ar    1  UNL1        0.0653
      8 C         141.0514  143.4644  159.5815 C.ar    1  UNL1        0.0199
      9 C         140.9372  143.0794  158.1363 C.ar    1  UNL1        0.0311
     10 C         139.6537  142.5067  157.6119 C.ar    1  UNL1        0.1402
     11 F         139.5394  142.1217  156.1667 F       1  UNL1       -0.2042
     12 C         138.4847  142.3191  158.5329 C.ar    1  UNL1        0.0311
     13 C         138.5990  142.7041  159.9780 C.ar    1  UNL1        0.0199
     14 C         140.6997  142.4646  167.1257 C.1     1  UNL1       -0.0581
     15 C         140.4872  142.9994  165.7405 C.1     1  UNL1       -0.0389
     16 C         142.5205  138.7690  170.2924 C.3     1  UNL1        0.0521
     17 C         141.8226  140.0819  170.0943 C.ar    1  UNL1        0.0600
     18 C         141.6101  140.6168  168.7091 C.ar    1  UNL1        0.0230
     19 C         140.9122  141.9297  168.5110 C.ar    1  UNL1        0.0447
     20 C         140.4267  142.7077  169.6980 C.ar    1  UNL1        0.0289
     21 C         140.6392  142.1728  171.0831 C.ar    1  UNL1        0.0991
     22 N         141.3372  140.8599  171.2813 N.ar    1  UNL1       -0.2481
@<TRIPOS>BOND
     1    16    17    1
     2    17    18   ar
     3    18    19   ar
     4    19    14    1
     5    14    15    3
     6    15     1    1
     7     1     2   ar
     8     2     3   ar
     9     3     7    1
    10     7     8   ar
    11     8     9   ar
    12     9    10   ar
    13    10    11    1
    14    10    12   ar
    15    12    13   ar
    16     3     4   ar
    17     4     5    1
    18     4     6   ar
    19    19    20   ar
    20    20    21   ar
    21    21    22   ar
    22    22    17   ar
    23     6     1   ar
    24    13     7   ar
@<TRIPOS>MOLECULE
*****
 22 24 0 0 0
SMALL
GASTEIGER

@<TRIPOS>ATOM
      1 C         143.4573  139.3554  161.5133 C.ar    1  UNL1        0.1416
      2 C         142.7892  139.2516  162.8522 C.ar    1  UNL1        0.1089
      3 N         143.5848  140.0630  163.8314 N.ar    1  UNL1       -0.2918
      4 C         144.7446  140.6683  163.0976 C.ar    1  UNL1        0.1253
      5 C         145.7982  141.5552  163.6920 C.3     1  UNL1        0.0722
      6 N         144.6658  140.2310  161.6648 N.ar    1  UNL1       -0.2223
      7 C         143.2749  140.2384  165.2884 C.ar    1  UNL1        0.0653
      8 C         143.0399  141.6112  165.8454 C.ar    1  UNL1        0.0199
      9 C         142.7300  141.7866  167.3025 C.ar    1  UNL1        0.0311
     10 C         142.6552  140.5891  168.2028 C.ar    1  UNL1        0.1402
     11 F         142.3453  140.7644  169.6599 F       1  UNL1       -0.2042
     12 C         142.8902  139.2163  167.6458 C.ar    1  UNL1        0.0311
     13 C         143.2001  139.0409  166.1888 C.ar    1  UNL1        0.0199
     14 C         142.5380  138.0425  158.9773 C.1     1  UNL1       -0.0581
     15 C         142.9977  138.6989  160.2453 C.1     1  UNL1       -0.0389
     16 C         143.2944  134.5930  155.1657 C.3     1  UNL1        0.0521
     17 C         142.4566  135.6612  155.8035 C.ar    1  UNL1        0.0600
     18 C         142.9162  136.3177  157.0715 C.ar    1  UNL1        0.0230
     19 C         142.0784  137.3860  157.7093 C.ar    1  UNL1        0.0447
     20 C         140.7809  137.7978  157.0792 C.ar    1  UNL1        0.0289
     21 C         140.3214  137.1413  155.8112 C.ar    1  UNL1        0.0991
     22 N         141.1592  136.0730  155.1734 N.ar    1  UNL1       -0.2481
@<TRIPOS>BOND
     1    16    17    1
     2    17    18   ar
     3    18    19   ar
     4    19    14    1
     5    14    15    3
     6    15     1    1
     7     1     2   ar
     8     2     3   ar
     9     3     7    1
    10     7     8   ar
    11     8     9   ar
    12     9    10   ar
    13    10    11    1
    14    10    12   ar
    15    12    13   ar
    16     3     4   ar
    17     4     5    1
    18     4     6   ar
    19    19    20   ar
    20    20    21   ar
    21    21    22   ar
    22    22    17   ar
    23     6     1   ar
    24    13     7   ar
@<TRIPOS>MOLECULE
*****
 22 24 0 0 0
SMALL
GASTEIGER

@<TRIPOS>ATOM
      1 C         139.2895  139.6322  161.0677 C.ar    1  UNL1        0.1416
      2 C         139.6562  139.1912  162.4537 C.ar    1  UNL1        0.1089
      3 N         139.0083  140.1318  163.4260 N.ar    1  UNL1       -0.2918
      4 C         138.2411  141.1542  162.6409 C.ar    1  UNL1        0.1253
      5 C         137.4407  142.2864  163.2129 C.3     1  UNL1        0.0722
      6 N         138.4149  140.8453  161.1833 N.ar    1  UNL1       -0.2223
      7 C         139.1096  140.0623  164.9209 C.ar    1  UNL1        0.0653
      8 C         138.1758  139.1805  165.6958 C.ar    1  UNL1        0.0199
      9 C         138.2771  139.1109  167.1908 C.ar    1  UNL1        0.0311
     10 C         139.3124  139.9232  167.9109 C.ar    1  UNL1        0.1402
     11 F         139.4138  139.8537  169.4058 F       1  UNL1       -0.2042
     12 C         140.2463  140.8050  167.1360 C.ar    1  UNL1        0.0311
     13 C         140.1449  140.8745  165.6411 C.ar    1  UNL1        0.0199
     14 C         140.1536  138.3185  158.5128 C.1     1  UNL1       -0.0581
     15 C         139.7216  138.9753  159.7902 C.1     1  UNL1       -0.0389
     16 C         143.9055  136.3156  155.5276 C.3     1  UNL1        0.0521
     17 C         142.4616  136.6602  155.7427 C.ar    1  UNL1        0.0600
     18 C         142.0295  137.3170  157.0201 C.ar    1  UNL1        0.0230
     19 C         140.5856  137.6616  157.2352 C.ar    1  UNL1        0.0447
     20 C         139.5737  137.3494  156.1729 C.ar    1  UNL1        0.0289
     21 C         140.0058  136.6926  154.8955 C.ar    1  UNL1        0.0991
     22 N         141.4497  136.3480  154.6804 N.ar    1  UNL1       -0.2481
@<TRIPOS>BOND
     1    16    17    1
     2    17    18   ar
     3    18    19   ar
     4    19    14    1
     5    14    15    3
     6    15     1    1
     7     1     2   ar
     8     2     3   ar
     9     3     7    1
    10     7     8   ar
    11     8     9   ar
    12     9    10   ar
    13    10    11    1
    14    10    12   ar
    15    12    13   ar
    16     3     4   ar
    17     4     5    1
    18     4     6   ar
    19    19    20   ar
    20    20    21   ar
    21    21    22   ar
    22    22    17   ar
    23     6     1   ar
    24    13     7   ar
