@<TRIPOS>MOLECULE
*****
 39 43 0 0 0
SMALL
GASTEIGER

@<TRIPOS>ATOM
      1 C         143.6543  142.2944  163.4643 C.3     1  UNL1        0.1423
      2 C         142.8573  142.8324  164.6155 C.3     1  UNL1        0.0335
      3 C         142.0301  144.0714  164.4411 C.3     1  UNL1        0.0209
      4 C         141.9999  144.7726  163.1153 C.3     1  UNL1        0.0844
      5 C         142.7969  144.2346  161.9641 C.3     1  UNL1        0.1577
      6 O         143.6241  142.9954  162.1386 O.3     1  UNL1       -0.3524
      7 C         144.4814  141.0553  163.6387 C.3     1  UNL1        0.1419
      8 O         145.9117  141.0385  163.1869 O.3     1  UNL1       -0.3816
      9 H         146.2988  140.1685  163.3713 H       1  UNL1        0.2105
     10 C         143.8784  139.8329  164.2650 C.3     1  UNL1        0.0620
     11 C         139.7331  139.9184  166.0141 C.ar    1  UNL1        0.2250
     12 C         138.6131  139.1972  165.3245 C.ar    1  UNL1        0.0593
     13 C         138.8749  138.4476  164.0519 C.ar    1  UNL1        0.0254
     14 C         140.2566  138.4191  163.4689 C.ar    1  UNL1        0.0990
     15 N         140.5184  137.6694  162.1963 N.ar    1  UNL1       -0.2400
     16 C         141.9001  137.6410  161.6132 C.ar    1  UNL1        0.1281
     17 C         143.0202  138.3621  162.3028 C.ar    1  UNL1        0.1567
     18 F         144.4019  138.3336  161.7198 F       1  UNL1       -0.2028
     19 C         142.7584  139.1118  163.5754 C.ar    1  UNL1        0.0285
     20 C         141.3766  139.1402  164.1584 C.ar    1  UNL1        0.1002
     21 N         141.1148  139.8899  165.4310 N.ar    1  UNL1       -0.2104
     22 C         139.8578  140.0657  168.6049 C.3     1  UNL1        0.2542
     23 O         139.4713  140.6680  167.2867 O.3     1  UNL1       -0.4561
     24 N         141.1727  146.0116  162.9409 N.3     1  UNL1       -0.2914
     25 H         141.7013  146.6350  162.3307 H       1  UNL1        0.1236
     26 C         139.7896  145.9156  162.3685 C.3     1  UNL1        0.1176
     27 C         139.1384  144.5747  162.2016 C.ar    1  UNL1        0.1038
     28 N         139.2920  143.8214  160.9136 N.ar    1  UNL1       -0.2282
     29 C         138.6407  142.4805  160.7468 C.ar    1  UNL1        0.1684
     30 C         137.8359  141.8929  161.8679 C.ar    1  UNL1        0.1730
     31 C         137.6822  142.6462  163.1558 C.ar    1  UNL1        0.0707
     32 C         138.3334  143.9871  163.3227 C.ar    1  UNL1        0.1581
     33 F         138.1798  144.7404  164.6107 F       1  UNL1       -0.2028
     34 O         137.1846  140.5520  161.7010 O.3     1  UNL1       -0.4627
     35 C         137.3382  139.7986  160.4130 C.3     1  UNL1        0.2898
     36 C         138.1432  140.3863  159.2919 C.2     1  UNL1        0.2718
     37 O         138.2968  139.6330  158.0039 O.2     1  UNL1       -0.2707
     38 N         138.7944  141.7272  159.4588 N.am    1  UNL1       -0.2639
     39 H         139.3227  142.1128  158.7230 H       1  UNL1        0.1565
@<TRIPOS>BOND
     1    22    23    1
     2    23    11    1
     3    11    12   ar
     4    12    13   ar
     5    13    14   ar
     6    14    15   ar
     7    15    16   ar
     8    16    17   ar
     9    17    18    1
    10    17    19   ar
    11    19    10    1
    12    10     7    1
    13     7     8    1
    14     7     1    1
    15     1     2    1
    16     2     3    1
    17     3     4    1
    18     4    24    1
    19    24    26    1
    20    26    27    1
    21    27    28   ar
    22    28    29   ar
    23    29    30   ar
    24    30    31   ar
    25    31    32   ar
    26    32    33    1
    27    30    34    1
    28    34    35    1
    29    35    36    1
    30    36    37    2
    31    36    38   am
    32     4     5    1
    33     5     6    1
    34    19    20   ar
    35    20    21   ar
    36    21    11   ar
    37    20    14   ar
    38     6     1    1
    39    32    27   ar
    40    38    29    1
    41     8     9    1
    42    24    25    1
    43    38    39    1
@<TRIPOS>MOLECULE
*****
 39 43 0 0 0
SMALL
GASTEIGER

@<TRIPOS>ATOM
      1 C         142.1461  138.4625  163.9223 C.3     1  UNL1        0.1423
      2 C         142.7388  139.1707  165.1043 C.3     1  UNL1        0.0335
      3 C         143.9667  140.0153  164.9342 C.3     1  UNL1        0.0209
      4 C         144.6018  140.1518  163.5821 C.3     1  UNL1        0.0844
      5 C         144.0091  139.4436  162.4002 C.3     1  UNL1        0.1577
      6 O         142.7812  138.5989  162.5703 O.3     1  UNL1       -0.3524
      7 C         140.9182  137.6178  164.0923 C.3     1  UNL1        0.1419
      8 O         140.9647  136.1535  163.7704 O.3     1  UNL1       -0.3816
      9 H         140.0940  135.7587  163.9340 H       1  UNL1        0.2105
     10 C         139.6438  138.2375  164.5843 C.3     1  UNL1        0.0620
     11 C         139.7538  142.5425  165.8899 C.ar    1  UNL1        0.2250
     12 C         139.0651  143.5928  165.0698 C.ar    1  UNL1        0.0593
     13 C         138.3397  143.2080  163.8145 C.ar    1  UNL1        0.0254
     14 C         138.3031  141.7731  163.3793 C.ar    1  UNL1        0.0990
     15 N         137.5777  141.3883  162.1240 N.ar    1  UNL1       -0.2400
     16 C         137.5410  139.9534  161.6887 C.ar    1  UNL1        0.1281
     17 C         138.2298  138.9030  162.5089 C.ar    1  UNL1        0.1567
     18 F         138.1931  137.4681  162.0736 F       1  UNL1       -0.2028
     19 C         138.9551  139.2878  163.7642 C.ar    1  UNL1        0.0285
     20 C         138.9918  140.7228  164.1994 C.ar    1  UNL1        0.1002
     21 N         139.7171  141.1075  165.4547 N.ar    1  UNL1       -0.2104
     22 C         140.5926  141.9482  168.2759 C.3     1  UNL1        0.2542
     23 O         140.4792  142.9272  167.1452 O.3     1  UNL1       -0.4561
     24 N         145.8297  140.9964  163.4121 N.3     1  UNL1       -0.2914
     25 H         146.5277  140.4120  162.9521 H       1  UNL1        0.1236
     26 C         145.7571  142.2773  162.6349 C.3     1  UNL1        0.1176
     27 C         144.5261  143.1310  162.7092 C.ar    1  UNL1        0.1038
     28 N         143.7571  143.4485  161.4610 N.ar    1  UNL1       -0.2282
     29 C         142.5260  144.3023  161.5354 C.ar    1  UNL1        0.1684
     30 C         142.0638  144.8385  162.8578 C.ar    1  UNL1        0.1730
     31 C         142.8328  144.5209  164.1060 C.ar    1  UNL1        0.0707
     32 C         144.0639  143.6672  164.0317 C.ar    1  UNL1        0.1581
     33 F         144.8328  143.3497  165.2798 F       1  UNL1       -0.2028
     34 O         140.8327  145.6922  162.9322 O.3     1  UNL1       -0.4627
     35 C         140.0637  146.0098  161.6840 C.3     1  UNL1        0.2898
     36 C         140.5259  145.4736  160.3615 C.2     1  UNL1        0.2718
     37 O         139.7570  145.7911  159.1134 O.2     1  UNL1       -0.2707
     38 N         141.7570  144.6199  160.2872 N.am    1  UNL1       -0.2639
     39 H         142.0603  144.2679  159.4193 H       1  UNL1        0.1565
@<TRIPOS>BOND
     1    22    23    1
     2    23    11    1
     3    11    12   ar
     4    12    13   ar
     5    13    14   ar
     6    14    15   ar
     7    15    16   ar
     8    16    17   ar
     9    17    18    1
    10    17    19   ar
    11    19    10    1
    12    10     7    1
    13     7     8    1
    14     7     1    1
    15     1     2    1
    16     2     3    1
    17     3     4    1
    18     4    24    1
    19    24    26    1
    20    26    27    1
    21    27    28   ar
    22    28    29   ar
    23    29    30   ar
    24    30    31   ar
    25    31    32   ar
    26    32    33    1
    27    30    34    1
    28    34    35    1
    29    35    36    1
    30    36    37    2
    31    36    38   am
    32     4     5    1
    33     5     6    1
    34    19    20   ar
    35    20    21   ar
    36    21    11   ar
    37    20    14   ar
    38     6     1    1
    39    32    27   ar
    40    38    29    1
    41     8     9    1
    42    24    25    1
    43    38    39    1
@<TRIPOS>MOLECULE
*****
 39 43 0 0 0
SMALL
GASTEIGER

@<TRIPOS>ATOM
      1 C         138.1203  139.9666  162.6883 C.3     1  UNL1        0.1423
      2 C         137.8711  140.7409  163.9487 C.3     1  UNL1        0.0335
      3 C         137.7198  142.2323  163.8952 C.3     1  UNL1        0.0209
      4 C         137.8179  142.9495  162.5813 C.3     1  UNL1        0.0844
      5 C         138.0671  142.1752  161.3210 C.3     1  UNL1        0.1577
      6 O         138.2184  140.6837  161.3746 O.3     1  UNL1       -0.3524
      7 C         138.2716  138.4753  162.7418 C.3     1  UNL1        0.1419
      8 O         137.6663  137.6210  161.6676 O.3     1  UNL1       -0.3816
      9 H         137.8554  136.6876  161.8519 H       1  UNL1        0.2105
     10 C         139.0281  137.8381  163.8696 C.3     1  UNL1        0.0620
     11 C         140.1432  139.6896  167.8165 C.ar    1  UNL1        0.2250
     12 C         141.5650  140.0856  168.0841 C.ar    1  UNL1        0.0593
     13 C         142.6151  139.8645  167.0361 C.ar    1  UNL1        0.0254
     14 C         142.2434  139.2473  165.7204 C.ar    1  UNL1        0.0990
     15 N         143.2935  139.0262  164.6724 N.ar    1  UNL1       -0.2400
     16 C         142.9218  138.4090  163.3568 C.ar    1  UNL1        0.1281
     17 C         141.5000  138.0130  163.0891 C.ar    1  UNL1        0.1567
     18 F         141.1283  137.3958  161.7735 F       1  UNL1       -0.2028
     19 C         140.4499  138.2341  164.1372 C.ar    1  UNL1        0.0285
     20 C         140.8216  138.8513  165.4529 C.ar    1  UNL1        0.1002
     21 N         139.7715  139.0724  166.5009 N.ar    1  UNL1       -0.2104
     22 C         139.3070  140.9392  169.9353 C.3     1  UNL1        0.2542
     23 O         139.0931  139.9107  168.8646 O.3     1  UNL1       -0.4561
     24 N         137.6666  144.4408  162.5278 N.3     1  UNL1       -0.2914
     25 H         137.0807  144.7059  163.3195 H       1  UNL1        0.1236
     26 C         138.8811  145.3200  162.5743 C.3     1  UNL1        0.1176
     27 C         140.2495  144.7071  162.6142 C.ar    1  UNL1        0.1038
     28 N         140.9712  144.3997  161.3357 N.ar    1  UNL1       -0.2282
     29 C         142.3398  143.7869  161.3756 C.ar    1  UNL1        0.1684
     30 C         142.9866  143.4814  162.6941 C.ar    1  UNL1        0.1730
     31 C         142.2649  143.7888  163.9726 C.ar    1  UNL1        0.0707
     32 C         140.8964  144.4016  163.9327 C.ar    1  UNL1        0.1581
     33 F         140.1747  144.7090  165.2112 F       1  UNL1       -0.2028
     34 O         144.3551  142.8685  162.7340 O.3     1  UNL1       -0.4627
     35 C         145.0768  142.5611  161.4555 C.3     1  UNL1        0.2898
     36 C         144.4300  142.8666  160.1370 C.2     1  UNL1        0.2718
     37 O         145.1517  142.5592  158.8585 O.2     1  UNL1       -0.2707
     38 N         143.0615  143.4795  160.0971 N.am    1  UNL1       -0.2639
     39 H         142.6370  143.6800  159.2317 H       1  UNL1        0.1565
@<TRIPOS>BOND
     1    22    23    1
     2    23    11    1
     3    11    12   ar
     4    12    13   ar
     5    13    14   ar
     6    14    15   ar
     7    15    16   ar
     8    16    17   ar
     9    17    18    1
    10    17    19   ar
    11    19    10    1
    12    10     7    1
    13     7     8    1
    14     7     1    1
    15     1     2    1
    16     2     3    1
    17     3     4    1
    18     4    24    1
    19    24    26    1
    20    26    27    1
    21    27    28   ar
    22    28    29   ar
    23    29    30   ar
    24    30    31   ar
    25    31    32   ar
    26    32    33    1
    27    30    34    1
    28    34    35    1
    29    35    36    1
    30    36    37    2
    31    36    38   am
    32     4     5    1
    33     5     6    1
    34    19    20   ar
    35    20    21   ar
    36    21    11   ar
    37    20    14   ar
    38     6     1    1
    39    32    27   ar
    40    38    29    1
    41     8     9    1
    42    24    25    1
    43    38    39    1
@<TRIPOS>MOLECULE
*****
 39 43 0 0 0
SMALL
GASTEIGER

@<TRIPOS>ATOM
      1 C         141.1117  140.0332  166.5655 C.3     1  UNL1        0.1423
      2 C         141.6640  141.4259  166.4925 C.3     1  UNL1        0.0335
      3 C         142.9446  141.6873  165.7566 C.3     1  UNL1        0.0209
      4 C         143.6730  140.5559  165.0936 C.3     1  UNL1        0.0844
      5 C         143.1208  139.1632  165.1666 C.3     1  UNL1        0.1577
      6 O         141.8401  138.9018  165.9025 O.3     1  UNL1       -0.3524
      7 C         139.8310  139.7718  167.3014 C.3     1  UNL1        0.1419
      8 O         139.8377  139.6427  168.7958 O.3     1  UNL1       -0.3816
      9 H         138.9352  139.4762  169.1099 H       1  UNL1        0.2105
     10 C         138.5437  139.6394  166.5428 C.3     1  UNL1        0.0620
     11 C         138.0855  143.0397  163.6311 C.ar    1  UNL1        0.2250
     12 C         138.1086  142.7717  162.1555 C.ar    1  UNL1        0.0593
     13 C         138.2844  141.3703  161.6504 C.ar    1  UNL1        0.0254
     14 C         138.4372  140.2369  162.6209 C.ar    1  UNL1        0.0990
     15 N         138.6130  138.8355  162.1158 N.ar    1  UNL1       -0.2400
     16 C         138.7658  137.7021  163.0863 C.ar    1  UNL1        0.1281
     17 C         138.7427  137.9700  164.5621 C.ar    1  UNL1        0.1567
     18 F         138.8954  136.8366  165.5326 F       1  UNL1       -0.2028
     19 C         138.5668  139.3714  165.0672 C.ar    1  UNL1        0.0285
     20 C         138.4141  140.5049  164.0966 C.ar    1  UNL1        0.1002
     21 N         138.2382  141.9063  164.6017 N.ar    1  UNL1       -0.2104
     22 C         138.6132  144.8819  165.3855 C.3     1  UNL1        0.2542
     23 O         137.9096  144.4411  164.1363 O.3     1  UNL1       -0.4561
     24 N         144.9537  140.8174  164.3577 N.3     1  UNL1       -0.2914
     25 H         145.1030  140.0232  163.7354 H       1  UNL1        0.1236
     26 C         145.0999  142.0551  163.5230 C.3     1  UNL1        0.1176
     27 C         144.0418  142.4141  162.5223 C.ar    1  UNL1        0.1038
     28 N         143.2084  143.6454  162.7210 N.ar    1  UNL1       -0.2282
     29 C         142.1503  144.0044  161.7201 C.ar    1  UNL1        0.1684
     30 C         141.9256  143.1321  160.5207 C.ar    1  UNL1        0.1730
     31 C         142.7589  141.9008  160.3221 C.ar    1  UNL1        0.0707
     32 C         143.8170  141.5418  161.3228 C.ar    1  UNL1        0.1581
     33 F         144.6504  140.3105  161.1241 F       1  UNL1       -0.2028
     34 O         140.8674  143.4911  159.5199 O.3     1  UNL1       -0.4627
     35 C         140.0341  144.7224  159.7186 C.3     1  UNL1        0.2898
     36 C         140.2588  145.5946  160.9181 C.2     1  UNL1        0.2718
     37 O         139.4255  146.8259  161.1167 O.2     1  UNL1       -0.2707
     38 N         141.3169  145.2356  161.9188 N.am    1  UNL1       -0.2639
     39 H         141.4644  145.8081  162.7060 H       1  UNL1        0.1565
@<TRIPOS>BOND
     1    22    23    1
     2    23    11    1
     3    11    12   ar
     4    12    13   ar
     5    13    14   ar
     6    14    15   ar
     7    15    16   ar
     8    16    17   ar
     9    17    18    1
    10    17    19   ar
    11    19    10    1
    12    10     7    1
    13     7     8    1
    14     7     1    1
    15     1     2    1
    16     2     3    1
    17     3     4    1
    18     4    24    1
    19    24    26    1
    20    26    27    1
    21    27    28   ar
    22    28    29   ar
    23    29    30   ar
    24    30    31   ar
    25    31    32   ar
    26    32    33    1
    27    30    34    1
    28    34    35    1
    29    35    36    1
    30    36    37    2
    31    36    38   am
    32     4     5    1
    33     5     6    1
    34    19    20   ar
    35    20    21   ar
    36    21    11   ar
    37    20    14   ar
    38     6     1    1
    39    32    27   ar
    40    38    29    1
    41     8     9    1
    42    24    25    1
    43    38    39    1
@<TRIPOS>MOLECULE
*****
 39 43 0 0 0
SMALL
GASTEIGER

@<TRIPOS>ATOM
      1 C         138.9611  142.3967  163.8150 C.3     1  UNL1        0.1423
      2 C         139.2781  142.9094  162.4415 C.3     1  UNL1        0.0335
      3 C         140.4080  143.8760  162.2440 C.3     1  UNL1        0.0209
      4 C         141.2209  144.3299  163.4201 C.3     1  UNL1        0.0844
      5 C         140.9039  143.8172  164.7937 C.3     1  UNL1        0.1577
      6 O         139.7739  142.8505  164.9911 O.3     1  UNL1       -0.3524
      7 C         137.8312  141.4301  164.0124 C.3     1  UNL1        0.1419
      8 O         136.4692  141.7475  163.4699 O.3     1  UNL1       -0.3816
      9 H         135.8596  141.0237  163.6829 H       1  UNL1        0.2105
     10 C         138.0632  140.1461  164.7525 C.3     1  UNL1        0.0620
     11 C         141.7585  139.9103  167.3096 C.ar    1  UNL1        0.2250
     12 C         142.8897  139.0092  166.9116 C.ar    1  UNL1        0.0593
     13 C         142.7891  138.1866  165.6613 C.ar    1  UNL1        0.0254
     14 C         141.5573  138.2652  164.8089 C.ar    1  UNL1        0.0990
     15 N         141.4568  137.4427  163.5586 N.ar    1  UNL1       -0.2400
     16 C         140.2250  137.5213  162.7062 C.ar    1  UNL1        0.1281
     17 C         139.0938  138.4225  163.1042 C.ar    1  UNL1        0.1567
     18 F         137.8620  138.5011  162.2518 F       1  UNL1       -0.2028
     19 C         139.1944  139.2450  164.3545 C.ar    1  UNL1        0.0285
     20 C         140.4262  139.1664  165.2069 C.ar    1  UNL1        0.1002
     21 N         140.5268  139.9889  166.4572 N.ar    1  UNL1       -0.2104
     22 C         141.8985  140.0593  169.8996 C.3     1  UNL1        0.2542
     23 O         141.8591  140.7328  168.5599 O.3     1  UNL1       -0.4561
     24 N         142.3508  145.2965  163.2227 N.3     1  UNL1       -0.2914
     25 H         142.3915  145.8770  164.0604 H       1  UNL1        0.1236
     26 C         143.7407  144.7864  162.9815 C.3     1  UNL1        0.1176
     27 C         143.9943  143.3103  162.9001 C.ar    1  UNL1        0.1038
     28 N         143.5792  142.5442  161.6790 N.ar    1  UNL1       -0.2282
     29 C         143.8328  141.0680  161.5976 C.ar    1  UNL1        0.1684
     30 C         144.5015  140.3579  162.7372 C.ar    1  UNL1        0.1730
     31 C         144.9165  141.1240  163.9582 C.ar    1  UNL1        0.0707
     32 C         144.6630  142.6001  164.0397 C.ar    1  UNL1        0.1581
     33 F         145.0780  143.3662  165.2607 F       1  UNL1       -0.2028
     34 O         144.7551  138.8817  162.6558 O.3     1  UNL1       -0.4627
     35 C         144.3401  138.1156  161.4348 C.3     1  UNL1        0.2898
     36 C         143.6714  138.8258  160.2952 C.2     1  UNL1        0.2718
     37 O         143.2563  138.0597  159.0742 O.2     1  UNL1       -0.2707
     38 N         143.4178  140.3019  160.3766 N.am    1  UNL1       -0.2639
     39 H         142.9789  140.7680  159.6287 H       1  UNL1        0.1565
@<TRIPOS>BOND
     1    22    23    1
     2    23    11    1
     3    11    12   ar
     4    12    13   ar
     5    13    14   ar
     6    14    15   ar
     7    15    16   ar
     8    16    17   ar
     9    17    18    1
    10    17    19   ar
    11    19    10    1
    12    10     7    1
    13     7     8    1
    14     7     1    1
    15     1     2    1
    16     2     3    1
    17     3     4    1
    18     4    24    1
    19    24    26    1
    20    26    27    1
    21    27    28   ar
    22    28    29   ar
    23    29    30   ar
    24    30    31   ar
    25    31    32   ar
    26    32    33    1
    27    30    34    1
    28    34    35    1
    29    35    36    1
    30    36    37    2
    31    36    38   am
    32     4     5    1
    33     5     6    1
    34    19    20   ar
    35    20    21   ar
    36    21    11   ar
    37    20    14   ar
    38     6     1    1
    39    32    27   ar
    40    38    29    1
    41     8     9    1
    42    24    25    1
    43    38    39    1
@<TRIPOS>MOLECULE
*****
 39 43 0 0 0
SMALL
GASTEIGER

@<TRIPOS>ATOM
      1 C         143.9206  141.3338  161.7218 C.3     1  UNL1        0.1423
      2 C         144.6038  140.2641  162.5212 C.3     1  UNL1        0.0335
      3 C         143.9430  138.9306  162.7089 C.3     1  UNL1        0.0209
      4 C         142.5990  138.6668  162.0972 C.3     1  UNL1        0.0844
      5 C         141.9158  139.7365  161.2978 C.3     1  UNL1        0.1577
      6 O         142.5766  141.0700  161.1101 O.3     1  UNL1       -0.3524
      7 C         144.5813  142.6672  161.5341 C.3     1  UNL1        0.1419
      8 O         145.5998  142.8534  160.4487 O.3     1  UNL1       -0.3816
      9 H         145.9260  143.7668  160.4647 H       1  UNL1        0.2105
     10 C         144.2236  143.8145  162.4318 C.3     1  UNL1        0.0620
     11 C         140.0241  145.2263  161.6437 C.ar    1  UNL1        0.2250
     12 C         138.9662  145.0558  162.6933 C.ar    1  UNL1        0.0593
     13 C         139.3080  144.4147  164.0056 C.ar    1  UNL1        0.0254
     14 C         140.7078  143.9441  164.2683 C.ar    1  UNL1        0.0990
     15 N         141.0497  143.3030  165.5806 N.ar    1  UNL1       -0.2400
     16 C         142.4495  142.8324  165.8433 C.ar    1  UNL1        0.1281
     17 C         143.5075  143.0029  164.7937 C.ar    1  UNL1        0.1567
     18 F         144.9073  142.5324  165.0564 F       1  UNL1       -0.2028
     19 C         143.1656  143.6440  163.4814 C.ar    1  UNL1        0.0285
     20 C         141.7658  144.1146  163.2187 C.ar    1  UNL1        0.1002
     21 N         141.4239  144.7557  161.9064 N.ar    1  UNL1       -0.2104
     22 C         140.3945  145.4432  159.0813 C.3     1  UNL1        0.2542
     23 O         139.6822  145.8674  160.3314 O.3     1  UNL1       -0.4561
     24 N         141.9383  137.3333  162.2849 N.3     1  UNL1       -0.2914
     25 H         142.6372  136.7135  162.6945 H       1  UNL1        0.1236
     26 C         140.7073  137.2192  163.1344 C.3     1  UNL1        0.1176
     27 C         140.5071  138.1498  164.2936 C.ar    1  UNL1        0.1038
     28 N         141.5758  138.2891  165.3368 N.ar    1  UNL1       -0.2282
     29 C         141.3756  139.2198  166.4961 C.ar    1  UNL1        0.1684
     30 C         140.1066  140.0110  166.6121 C.ar    1  UNL1        0.1730
     31 C         139.0378  139.8717  165.5689 C.ar    1  UNL1        0.0707
     32 C         139.2380  138.9411  164.4097 C.ar    1  UNL1        0.1581
     33 F         138.1692  138.8018  163.3664 F       1  UNL1       -0.2028
     34 O         139.9063  140.9417  167.7714 O.3     1  UNL1       -0.4627
     35 C         140.9751  141.0810  168.8146 C.3     1  UNL1        0.2898
     36 C         142.2441  140.2896  168.6986 C.2     1  UNL1        0.2718
     37 O         143.3129  140.4290  169.7418 O.2     1  UNL1       -0.2707
     38 N         142.4443  139.3591  167.5393 N.am    1  UNL1       -0.2639
     39 H         143.2772  138.8397  167.4632 H       1  UNL1        0.1565
@<TRIPOS>BOND
     1    22    23    1
     2    23    11    1
     3    11    12   ar
     4    12    13   ar
     5    13    14   ar
     6    14    15   ar
     7    15    16   ar
     8    16    17   ar
     9    17    18    1
    10    17    19   ar
    11    19    10    1
    12    10     7    1
    13     7     8    1
    14     7     1    1
    15     1     2    1
    16     2     3    1
    17     3     4    1
    18     4    24    1
    19    24    26    1
    20    26    27    1
    21    27    28   ar
    22    28    29   ar
    23    29    30   ar
    24    30    31   ar
    25    31    32   ar
    26    32    33    1
    27    30    34    1
    28    34    35    1
    29    35    36    1
    30    36    37    2
    31    36    38   am
    32     4     5    1
    33     5     6    1
    34    19    20   ar
    35    20    21   ar
    36    21    11   ar
    37    20    14   ar
    38     6     1    1
    39    32    27   ar
    40    38    29    1
    41     8     9    1
    42    24    25    1
    43    38    39    1
@<TRIPOS>MOLECULE
*****
 39 43 0 0 0
SMALL
GASTEIGER

@<TRIPOS>ATOM
      1 C         140.5659  140.0665  160.4879 C.3     1  UNL1        0.1423
      2 C         141.4003  141.3087  160.5913 C.3     1  UNL1        0.0335
      3 C         142.7796  141.2391  161.1767 C.3     1  UNL1        0.0209
      4 C         143.3245  139.9272  161.6587 C.3     1  UNL1        0.0844
      5 C         142.4901  138.6851  161.5552 C.3     1  UNL1        0.1577
      6 O         141.1107  138.7547  160.9698 O.3     1  UNL1       -0.3524
      7 C         139.1866  140.1361  159.9025 C.3     1  UNL1        0.1419
      8 O         138.9917  139.9886  158.4225 O.3     1  UNL1       -0.3816
      9 H         138.0472  140.0578  158.2123 H       1  UNL1        0.2105
     10 C         138.0022  140.3533  160.7970 C.3     1  UNL1        0.0620
     11 C         138.5016  144.3383  162.8269 C.ar    1  UNL1        0.2250
     12 C         138.6870  144.4045  164.3139 C.ar    1  UNL1        0.0593
     13 C         138.7059  143.1424  165.1243 C.ar    1  UNL1        0.0254
     14 C         138.5394  141.8141  164.4477 C.ar    1  UNL1        0.0990
     15 N         138.5584  140.5520  165.2581 N.ar    1  UNL1       -0.2400
     16 C         138.3919  139.2237  164.5815 C.ar    1  UNL1        0.1281
     17 C         138.2065  139.1574  163.0944 C.ar    1  UNL1        0.1567
     18 F         138.0401  137.8291  162.4178 F       1  UNL1       -0.2028
     19 C         138.1876  140.4195  162.2840 C.ar    1  UNL1        0.0285
     20 C         138.3541  141.7479  162.9607 C.ar    1  UNL1        0.1002
     21 N         138.3352  143.0100  162.1503 N.ar    1  UNL1       -0.2104
     22 C         139.7655  146.3161  161.7128 C.3     1  UNL1        0.2542
     23 O         138.4827  145.6004  162.0164 O.3     1  UNL1       -0.4561
     24 N         144.7038  139.8576  162.2441 N.3     1  UNL1       -0.2914
     25 H         145.1692  140.7334  162.0060 H       1  UNL1        0.1236
     26 C         144.8829  139.6594  163.7201 C.3     1  UNL1        0.1176
     27 C         144.0112  140.4030  164.6880 C.ar    1  UNL1        0.1038
     28 N         142.9608  139.6693  165.4680 N.ar    1  UNL1       -0.2282
     29 C         142.0890  140.4130  166.4360 C.ar    1  UNL1        0.1684
     30 C         142.2676  141.8904  166.6239 C.ar    1  UNL1        0.1730
     31 C         143.3179  142.6242  165.8439 C.ar    1  UNL1        0.0707
     32 C         144.1897  141.8805  164.8760 C.ar    1  UNL1        0.1581
     33 F         145.2400  142.6142  164.0960 F       1  UNL1       -0.2028
     34 O         141.3958  142.6342  167.5919 O.3     1  UNL1       -0.4627
     35 C         140.3454  141.9004  168.3719 C.3     1  UNL1        0.2898
     36 C         140.1669  140.4230  168.1839 C.2     1  UNL1        0.2718
     37 O         139.1166  139.6892  168.9639 O.2     1  UNL1       -0.2707
     38 N         141.0387  139.6793  167.2160 N.am    1  UNL1       -0.2639
     39 H         140.9215  138.7096  167.0927 H       1  UNL1        0.1565
@<TRIPOS>BOND
     1    22    23    1
     2    23    11    1
     3    11    12   ar
     4    12    13   ar
     5    13    14   ar
     6    14    15   ar
     7    15    16   ar
     8    16    17   ar
     9    17    18    1
    10    17    19   ar
    11    19    10    1
    12    10     7    1
    13     7     8    1
    14     7     1    1
    15     1     2    1
    16     2     3    1
    17     3     4    1
    18     4    24    1
    19    24    26    1
    20    26    27    1
    21    27    28   ar
    22    28    29   ar
    23    29    30   ar
    24    30    31   ar
    25    31    32   ar
    26    32    33    1
    27    30    34    1
    28    34    35    1
    29    35    36    1
    30    36    37    2
    31    36    38   am
    32     4     5    1
    33     5     6    1
    34    19    20   ar
    35    20    21   ar
    36    21    11   ar
    37    20    14   ar
    38     6     1    1
    39    32    27   ar
    40    38    29    1
    41     8     9    1
    42    24    25    1
    43    38    39    1
@<TRIPOS>MOLECULE
*****
 39 43 0 0 0
SMALL
GASTEIGER

@<TRIPOS>ATOM
      1 C         138.3230  140.1902  164.5894 C.3     1  UNL1        0.1423
      2 C         138.9200  141.3723  165.2939 C.3     1  UNL1        0.0335
      3 C         138.7795  142.7452  164.7061 C.3     1  UNL1        0.0209
      4 C         138.0419  142.9360  163.4139 C.3     1  UNL1        0.0844
      5 C         137.4450  141.7538  162.7095 C.3     1  UNL1        0.1577
      6 O         137.5855  140.3809  163.2973 O.3     1  UNL1       -0.3524
      7 C         138.4636  138.8174  165.1772 C.3     1  UNL1        0.1419
      8 O         137.9465  138.5356  166.5567 O.3     1  UNL1       -0.3816
      9 H         138.1160  137.6075  166.7823 H       1  UNL1        0.2105
     10 C         139.1212  137.7262  164.3853 C.3     1  UNL1        0.0620
     11 C         143.1915  138.6850  166.0478 C.ar    1  UNL1        0.2250
     12 C         144.3234  139.0103  165.1189 C.ar    1  UNL1        0.0593
     13 C         144.0986  139.0160  163.6359 C.ar    1  UNL1        0.0254
     14 C         142.7419  138.6964  163.0817 C.ar    1  UNL1        0.0990
     15 N         142.5171  138.7021  161.5986 N.ar    1  UNL1       -0.2400
     16 C         141.1604  138.3825  161.0445 C.ar    1  UNL1        0.1281
     17 C         140.0284  138.0572  161.9734 C.ar    1  UNL1        0.1567
     18 F         138.6717  137.7376  161.4192 F       1  UNL1       -0.2028
     19 C         140.2532  138.0515  163.4564 C.ar    1  UNL1        0.0285
     20 C         141.6100  138.3711  164.0106 C.ar    1  UNL1        0.1002
     21 N         141.8348  138.3654  165.4936 N.ar    1  UNL1       -0.2104
     22 C         142.5670  139.5370  168.4214 C.3     1  UNL1        0.2542
     23 O         143.4162  138.6793  167.5308 O.3     1  UNL1       -0.4561
     24 N         137.9014  144.3088  162.8262 N.3     1  UNL1       -0.2914
     25 H         137.2711  144.8278  163.4376 H       1  UNL1        0.1236
     26 C         139.1153  145.1671  162.6267 C.3     1  UNL1        0.1176
     27 C         139.9869  144.9653  161.4228 C.ar    1  UNL1        0.1038
     28 N         139.6626  145.6651  160.1362 N.ar    1  UNL1       -0.2282
     29 C         140.5344  145.4632  158.9323 C.ar    1  UNL1        0.1684
     30 C         141.7303  144.5616  159.0149 C.ar    1  UNL1        0.1730
     31 C         142.0545  143.8618  160.3014 C.ar    1  UNL1        0.0707
     32 C         141.1829  144.0637  161.5054 C.ar    1  UNL1        0.1581
     33 F         141.5071  143.3639  162.7919 F       1  UNL1       -0.2028
     34 O         142.6020  144.3597  157.8110 O.3     1  UNL1       -0.4627
     35 C         142.2777  145.0595  156.5244 C.3     1  UNL1        0.2898
     36 C         141.0817  145.9611  156.4418 C.2     1  UNL1        0.2718
     37 O         140.7575  146.6609  155.1553 O.2     1  UNL1       -0.2707
     38 N         140.2101  146.1630  157.6457 N.am    1  UNL1       -0.2639
     39 H         139.4252  146.7547  157.5915 H       1  UNL1        0.1565
@<TRIPOS>BOND
     1    22    23    1
     2    23    11    1
     3    11    12   ar
     4    12    13   ar
     5    13    14   ar
     6    14    15   ar
     7    15    16   ar
     8    16    17   ar
     9    17    18    1
    10    17    19   ar
    11    19    10    1
    12    10     7    1
    13     7     8    1
    14     7     1    1
    15     1     2    1
    16     2     3    1
    17     3     4    1
    18     4    24    1
    19    24    26    1
    20    26    27    1
    21    27    28   ar
    22    28    29   ar
    23    29    30   ar
    24    30    31   ar
    25    31    32   ar
    26    32    33    1
    27    30    34    1
    28    34    35    1
    29    35    36    1
    30    36    37    2
    31    36    38   am
    32     4     5    1
    33     5     6    1
    34    19    20   ar
    35    20    21   ar
    36    21    11   ar
    37    20    14   ar
    38     6     1    1
    39    32    27   ar
    40    38    29    1
    41     8     9    1
    42    24    25    1
    43    38    39    1
@<TRIPOS>MOLECULE
*****
 39 43 0 0 0
SMALL
GASTEIGER

@<TRIPOS>ATOM
      1 C         143.2140  138.8150  162.1592 C.3     1  UNL1        0.1423
      2 C         143.6283  140.0102  161.3528 C.3     1  UNL1        0.0335
      3 C         144.5026  141.0629  161.9671 C.3     1  UNL1        0.0209
      4 C         144.9627  140.9205  163.3877 C.3     1  UNL1        0.0844
      5 C         144.5485  139.7254  164.1940 C.3     1  UNL1        0.1577
      6 O         143.6741  138.6726  163.5797 O.3     1  UNL1       -0.3524
      7 C         142.3397  137.7623  161.5449 C.3     1  UNL1        0.1419
      8 O         142.9037  136.8231  160.5204 O.3     1  UNL1       -0.3816
      9 H         142.2112  136.2101  160.2278 H       1  UNL1        0.2105
     10 C         140.9013  137.6489  161.9552 C.3     1  UNL1        0.0620
     11 C         138.8521  140.1802  165.0605 C.ar    1  UNL1        0.2250
     12 C         137.8674  141.2310  164.6409 C.ar    1  UNL1        0.0593
     13 C         137.5657  141.4380  163.1862 C.ar    1  UNL1        0.0254
     14 C         138.2488  140.5943  162.1511 C.ar    1  UNL1        0.0990
     15 N         137.9471  140.8013  160.6965 N.ar    1  UNL1       -0.2400
     16 C         138.6302  139.9576  159.6614 C.ar    1  UNL1        0.1281
     17 C         139.6149  138.9067  160.0809 C.ar    1  UNL1        0.1567
     18 F         140.2980  138.0630  159.0458 F       1  UNL1       -0.2028
     19 C         139.9166  138.6997  161.5356 C.ar    1  UNL1        0.0285
     20 C         139.2335  139.5435  162.5707 C.ar    1  UNL1        0.1002
     21 N         139.5352  139.3365  164.0254 N.ar    1  UNL1       -0.2104
     22 C         140.5729  139.8017  166.9699 C.3     1  UNL1        0.2542
     23 O         139.1538  139.9732  166.5152 O.3     1  UNL1       -0.4561
     24 N         145.8371  141.9732  164.0019 N.3     1  UNL1       -0.2914
     25 H         146.4106  142.3552  163.2499 H       1  UNL1        0.1236
     26 C         145.2189  143.1414  164.7112 C.3     1  UNL1        0.1176
     27 C         143.7527  143.4200  164.5607 C.ar    1  UNL1        0.1038
     28 N         143.2725  144.3509  163.4870 N.ar    1  UNL1       -0.2282
     29 C         141.8063  144.6295  163.3365 C.ar    1  UNL1        0.1684
     30 C         140.8203  143.9771  164.2597 C.ar    1  UNL1        0.1730
     31 C         141.3005  143.0462  165.3333 C.ar    1  UNL1        0.0707
     32 C         142.7667  142.7676  165.4839 C.ar    1  UNL1        0.1581
     33 F         143.2469  141.8367  166.5576 F       1  UNL1       -0.2028
     34 O         139.3540  144.2557  164.1092 O.3     1  UNL1       -0.4627
     35 C         138.8738  145.1866  163.0355 C.3     1  UNL1        0.2898
     36 C         139.8599  145.8390  162.1123 C.2     1  UNL1        0.2718
     37 O         139.3797  146.7699  161.0386 O.2     1  UNL1       -0.2707
     38 N         141.3261  145.5604  162.2628 N.am    1  UNL1       -0.2639
     39 H         141.9732  145.9886  161.6569 H       1  UNL1        0.1565
@<TRIPOS>BOND
     1    22    23    1
     2    23    11    1
     3    11    12   ar
     4    12    13   ar
     5    13    14   ar
     6    14    15   ar
     7    15    16   ar
     8    16    17   ar
     9    17    18    1
    10    17    19   ar
    11    19    10    1
    12    10     7    1
    13     7     8    1
    14     7     1    1
    15     1     2    1
    16     2     3    1
    17     3     4    1
    18     4    24    1
    19    24    26    1
    20    26    27    1
    21    27    28   ar
    22    28    29   ar
    23    29    30   ar
    24    30    31   ar
    25    31    32   ar
    26    32    33    1
    27    30    34    1
    28    34    35    1
    29    35    36    1
    30    36    37    2
    31    36    38   am
    32     4     5    1
    33     5     6    1
    34    19    20   ar
    35    20    21   ar
    36    21    11   ar
    37    20    14   ar
    38     6     1    1
    39    32    27   ar
    40    38    29    1
    41     8     9    1
    42    24    25    1
    43    38    39    1
