@<TRIPOS>MOLECULE
*****
 26 28 0 0 0
SMALL
GASTEIGER

@<TRIPOS>ATOM
      1 C         142.1630  144.4321  161.8303 C.ar    1  UNL1        0.2181
      2 N         143.5029  143.8551  162.1789 N.ar    1  UNL1       -0.1986
      3 C         143.6979  143.1488  163.4878 C.ar    1  UNL1        0.1388
      4 C         142.5529  143.0197  164.4482 C.ar    1  UNL1        0.0786
      5 S         142.4454  142.3827  165.8019 S.2     1  UNL1       -0.0826
      6 C         141.0389  142.5661  166.2900 C.ar    1  UNL1        0.0311
      7 C         140.2772  143.3165  165.2379 C.ar    1  UNL1        0.0263
      8 C         141.2130  143.5968  164.0996 C.ar    1  UNL1        0.0933
      9 N         141.0180  144.3030  162.7907 N.ar    1  UNL1       -0.2132
     10 C         140.4904  142.0839  167.6002 C.ar    1  UNL1        0.0060
     11 C         140.5317  142.9767  168.8048 C.ar    1  UNL1        0.0005
     12 C         139.9832  142.4943  170.1150 C.ar    1  UNL1        0.0000
     13 C         139.3932  141.1192  170.2205 C.ar    1  UNL1        0.0000
     14 C         139.3519  140.2264  169.0159 C.ar    1  UNL1        0.0000
     15 C         139.9005  140.7088  167.7057 C.ar    1  UNL1        0.0005
     16 C         140.5827  145.4340  160.0279 C.3     1  UNL1        0.1108
     17 N         141.9680  145.1384  160.5214 N.pl3   1  UNL1       -0.3013
     18 H         142.7492  145.4078  159.9862 H       1  UNL1        0.1497
     19 N         145.0379  142.5717  163.8363 N.pl3   1  UNL1       -0.3176
     20 H         145.6741  143.0950  164.3756 H       1  UNL1        0.1482
     21 C         145.4087  141.1975  163.3632 C.3     1  UNL1        0.0896
     22 C         145.0290  139.9962  164.1774 C.3     1  UNL1        0.0385
     23 C         143.7912  139.2203  163.8372 C.3     1  UNL1        0.0739
     24 N         143.0229  138.5214  164.9194 N.3     1  UNL1       -0.2703
     25 C         143.5912  138.4321  166.3047 C.3     1  UNL1        0.0897
     26 C         141.6862  137.9119  164.6163 C.3     1  UNL1        0.0897
@<TRIPOS>BOND
     1    16    17    1
     2    17     1    1
     3     1     2   ar
     4     2     3   ar
     5     3    19    1
     6    19    21    1
     7    21    22    1
     8    22    23    1
     9    23    24    1
    10    24    25    1
    11    24    26    1
    12     3     4   ar
    13     4     5   ar
    14     5     6   ar
    15     6    10    1
    16    10    11   ar
    17    11    12   ar
    18    12    13   ar
    19    13    14   ar
    20    14    15   ar
    21     6     7   ar
    22     7     8   ar
    23     8     9   ar
    24     9     1   ar
    25     8     4   ar
    26    15    10   ar
    27    17    18    1
    28    19    20    1
@<TRIPOS>MOLECULE
*****
 26 28 0 0 0
SMALL
GASTEIGER

@<TRIPOS>ATOM
      1 C         138.7093  144.4223  162.8895 C.ar    1  UNL1        0.2181
      2 N         137.9267  143.1992  162.5133 N.ar    1  UNL1       -0.1986
      3 C         137.9981  141.9701  163.3702 C.ar    1  UNL1        0.1388
      4 C         138.8521  141.9642  164.6034 C.ar    1  UNL1        0.0786
      5 S         139.1183  140.9081  165.6347 S.2     1  UNL1       -0.0826
      6 C         140.0655  141.4785  166.6484 C.ar    1  UNL1        0.0311
      7 C         140.3846  142.8871  166.2435 C.ar    1  UNL1        0.0263
      8 C         139.6346  143.1873  164.9796 C.ar    1  UNL1        0.0933
      9 N         139.5633  144.4163  164.1227 N.ar    1  UNL1       -0.2132
     10 C         140.5997  140.7655  167.8551 C.ar    1  UNL1        0.0060
     11 C         141.9379  140.0904  167.7960 C.ar    1  UNL1        0.0005
     12 C         142.4721  139.3774  169.0028 C.ar    1  UNL1        0.0000
     13 C         141.6682  139.3395  170.2686 C.ar    1  UNL1        0.0000
     14 C         140.3301  140.0146  170.3277 C.ar    1  UNL1        0.0000
     15 C         139.7958  140.7276  169.1209 C.ar    1  UNL1        0.0005
     16 C         139.8574  146.1263  161.2995 C.3     1  UNL1        0.1108
     17 N         138.6379  145.6514  162.0326 N.pl3   1  UNL1       -0.3013
     18 H         137.7908  146.1463  161.9513 H       1  UNL1        0.1497
     19 N         137.2155  140.7470  162.9939 N.pl3   1  UNL1       -0.3176
     20 H         136.4849  140.4323  163.5740 H       1  UNL1        0.1482
     21 C         137.5460  140.0034  161.7339 C.3     1  UNL1        0.0896
     22 C         138.0526  138.5933  161.8061 C.3     1  UNL1        0.0385
     23 C         138.5970  138.0573  163.0969 C.3     1  UNL1        0.0739
     24 N         140.0666  137.7915  163.2383 N.3     1  UNL1       -0.2703
     25 C         140.6386  137.4342  164.5782 C.3     1  UNL1        0.0897
     26 C         140.9640  137.8830  162.0399 C.3     1  UNL1        0.0897
@<TRIPOS>BOND
     1    16    17    1
     2    17     1    1
     3     1     2   ar
     4     2     3   ar
     5     3    19    1
     6    19    21    1
     7    21    22    1
     8    22    23    1
     9    23    24    1
    10    24    25    1
    11    24    26    1
    12     3     4   ar
    13     4     5   ar
    14     5     6   ar
    15     6    10    1
    16    10    11   ar
    17    11    12   ar
    18    12    13   ar
    19    13    14   ar
    20    14    15   ar
    21     6     7   ar
    22     7     8   ar
    23     8     9   ar
    24     9     1   ar
    25     8     4   ar
    26    15    10   ar
    27    17    18    1
    28    19    20    1
@<TRIPOS>MOLECULE
*****
 26 28 0 0 0
SMALL
GASTEIGER

@<TRIPOS>ATOM
      1 C         142.3958  137.8946  162.2491 C.ar    1  UNL1        0.2181
      2 N         140.9375  137.5977  162.0623 N.ar    1  UNL1       -0.1986
      3 C         139.9401  138.0667  163.0799 C.ar    1  UNL1        0.1388
      4 C         140.4013  138.8326  164.2843 C.ar    1  UNL1        0.0786
      5 S         139.6562  139.4189  165.4467 S.2     1  UNL1       -0.0826
      6 C         140.6542  140.0782  166.3519 C.ar    1  UNL1        0.0311
      7 C         142.0160  139.8993  165.7490 C.ar    1  UNL1        0.0263
      8 C         141.8597  139.1295  164.4712 C.ar    1  UNL1        0.0933
      9 N         142.8569  138.6605  163.4536 N.ar    1  UNL1       -0.2132
     10 C         140.3447  140.7912  167.6348 C.ar    1  UNL1        0.0060
     11 C         139.5616  140.0962  168.7090 C.ar    1  UNL1        0.0005
     12 C         139.2522  140.8093  169.9919 C.ar    1  UNL1        0.0000
     13 C         139.7257  142.2172  170.2007 C.ar    1  UNL1        0.0000
     14 C         140.5088  142.9121  169.1265 C.ar    1  UNL1        0.0000
     15 C         140.8182  142.1990  167.8435 C.ar    1  UNL1        0.0005
     16 C         143.0552  137.4774  159.7710 C.3     1  UNL1        0.1108
     17 N         143.3931  137.4256  161.2315 N.pl3   1  UNL1       -0.3013
     18 H         144.2694  137.0838  161.5222 H       1  UNL1        0.1497
     19 N         138.4817  137.7698  162.8929 N.pl3   1  UNL1       -0.3176
     20 H         138.0109  137.1912  163.5354 H       1  UNL1        0.1482
     21 C         137.7407  138.3543  161.7271 C.3     1  UNL1        0.0896
     22 C         137.7578  139.8361  161.4944 C.3     1  UNL1        0.0385
     23 C         137.4722  140.7766  162.6274 C.3     1  UNL1        0.0739
     24 N         138.4276  141.8910  162.9363 N.3     1  UNL1       -0.2703
     25 C         139.7893  141.9073  162.3076 C.3     1  UNL1        0.0897
     26 C         138.0211  142.9891  163.8738 C.3     1  UNL1        0.0897
@<TRIPOS>BOND
     1    16    17    1
     2    17     1    1
     3     1     2   ar
     4     2     3   ar
     5     3    19    1
     6    19    21    1
     7    21    22    1
     8    22    23    1
     9    23    24    1
    10    24    25    1
    11    24    26    1
    12     3     4   ar
    13     4     5   ar
    14     5     6   ar
    15     6    10    1
    16    10    11   ar
    17    11    12   ar
    18    12    13   ar
    19    13    14   ar
    20    14    15   ar
    21     6     7   ar
    22     7     8   ar
    23     8     9   ar
    24     9     1   ar
    25     8     4   ar
    26    15    10   ar
    27    17    18    1
    28    19    20    1
@<TRIPOS>MOLECULE
*****
 26 28 0 0 0
SMALL
GASTEIGER

@<TRIPOS>ATOM
      1 C         143.9974  139.1920  162.5174 C.ar    1  UNL1        0.2181
      2 N         144.6137  140.5594  162.5228 N.ar    1  UNL1       -0.1986
      3 C         144.2575  141.5384  163.6021 C.ar    1  UNL1        0.1388
      4 C         143.2850  141.1498  164.6759 C.ar    1  UNL1        0.0786
      5 S         142.7460  141.8965  165.8599 S.2     1  UNL1       -0.0826
      6 C         141.7965  140.9905  166.5862 C.ar    1  UNL1        0.0311
      7 C         141.7487  139.6838  165.8511 C.ar    1  UNL1        0.0263
      8 C         142.6687  139.7823  164.6705 C.ar    1  UNL1        0.0933
      9 N         143.0249  138.8033  163.5912 N.ar    1  UNL1       -0.2132
     10 C         141.0293  141.3313  167.8293 C.ar    1  UNL1        0.0060
     11 C         141.1465  142.7002  168.4314 C.ar    1  UNL1        0.0005
     12 C         140.3794  143.0409  169.6745 C.ar    1  UNL1        0.0000
     13 C         139.4951  142.0128  170.3157 C.ar    1  UNL1        0.0000
     14 C         139.3779  140.6439  169.7136 C.ar    1  UNL1        0.0000
     15 C         140.1450  140.3032  168.4705 C.ar    1  UNL1        0.0005
     16 C         143.2758  137.6124  160.5849 C.3     1  UNL1        0.1108
     17 N         144.3535  138.2130  161.4380 N.pl3   1  UNL1       -0.3013
     18 H         145.2945  137.9646  161.2896 H       1  UNL1        0.1497
     19 N         144.8739  142.9059  163.6074 N.pl3   1  UNL1       -0.3176
     20 H         145.7302  143.0581  164.0688 H       1  UNL1        0.1482
     21 C         144.1856  144.0415  162.9098 C.3     1  UNL1        0.0896
     22 C         143.4546  145.0796  163.7086 C.3     1  UNL1        0.0385
     23 C         141.9600  145.1755  163.6245 C.3     1  UNL1        0.0739
     24 N         141.2169  144.4050  162.5737 N.3     1  UNL1       -0.2703
     25 C         140.6515  143.0532  162.8942 C.3     1  UNL1        0.0897
     26 C         141.0392  144.9864  161.2024 C.3     1  UNL1        0.0897
@<TRIPOS>BOND
     1    16    17    1
     2    17     1    1
     3     1     2   ar
     4     2     3   ar
     5     3    19    1
     6    19    21    1
     7    21    22    1
     8    22    23    1
     9    23    24    1
    10    24    25    1
    11    24    26    1
    12     3     4   ar
    13     4     5   ar
    14     5     6   ar
    15     6    10    1
    16    10    11   ar
    17    11    12   ar
    18    12    13   ar
    19    13    14   ar
    20    14    15   ar
    21     6     7   ar
    22     7     8   ar
    23     8     9   ar
    24     9     1   ar
    25     8     4   ar
    26    15    10   ar
    27    17    18    1
    28    19    20    1
@<TRIPOS>MOLECULE
*****
 26 28 0 0 0
SMALL
GASTEIGER

@<TRIPOS>ATOM
      1 C         138.6461  142.3180  161.7660 C.ar    1  UNL1        0.2181
      2 N         138.4950  140.8573  162.0712 N.ar    1  UNL1       -0.1986
      3 C         138.9749  140.3117  163.3836 C.ar    1  UNL1        0.1388
      4 C         139.6058  141.2270  164.3906 C.ar    1  UNL1        0.0786
      5 S         140.1690  140.9785  165.7584 S.2     1  UNL1       -0.0826
      6 C         140.6682  142.2859  166.2985 C.ar    1  UNL1        0.0311
      7 C         140.4135  143.3422  165.2645 C.ar    1  UNL1        0.0263
      8 C         139.7569  142.6878  164.0853 C.ar    1  UNL1        0.0933
      9 N         139.2771  143.2333  162.7730 N.ar    1  UNL1       -0.2132
     10 C         141.3096  142.4994  167.6376 C.ar    1  UNL1        0.0060
     11 C         142.7374  142.0962  167.8582 C.ar    1  UNL1        0.0005
     12 C         143.3787  142.3097  169.1973 C.ar    1  UNL1        0.0000
     13 C         142.5922  142.9264  170.3158 C.ar    1  UNL1        0.0000
     14 C         141.1643  143.3296  170.0953 C.ar    1  UNL1        0.0000
     15 C         140.5231  143.1161  168.7561 C.ar    1  UNL1        0.0005
     16 C         138.5259  142.1664  159.1751 C.3     1  UNL1        0.1108
     17 N         138.1662  142.8636  160.4536 N.pl3   1  UNL1       -0.3013
     18 H         137.6153  143.6792  160.4315 H       1  UNL1        0.1497
     19 N         138.8237  138.8508  163.6888 N.pl3   1  UNL1       -0.3176
     20 H         138.2814  138.5622  164.4581 H       1  UNL1        0.1482
     21 C         139.4988  137.8297  162.8219 C.3     1  UNL1        0.0896
     22 C         140.8297  137.2666  163.2239 C.3     1  UNL1        0.0385
     23 C         141.3666  137.5211  164.6012 C.3     1  UNL1        0.0739
     24 N         142.6065  138.3456  164.7825 N.3     1  UNL1       -0.2703
     25 C         143.2291  138.4752  166.1410 C.3     1  UNL1        0.0897
     26 C         143.2238  139.0404  163.6051 C.3     1  UNL1        0.0897
@<TRIPOS>BOND
     1    16    17    1
     2    17     1    1
     3     1     2   ar
     4     2     3   ar
     5     3    19    1
     6    19    21    1
     7    21    22    1
     8    22    23    1
     9    23    24    1
    10    24    25    1
    11    24    26    1
    12     3     4   ar
    13     4     5   ar
    14     5     6   ar
    15     6    10    1
    16    10    11   ar
    17    11    12   ar
    18    12    13   ar
    19    13    14   ar
    20    14    15   ar
    21     6     7   ar
    22     7     8   ar
    23     8     9   ar
    24     9     1   ar
    25     8     4   ar
    26    15    10   ar
    27    17    18    1
    28    19    20    1
@<TRIPOS>MOLECULE
*****
 26 28 0 0 0
SMALL
GASTEIGER

@<TRIPOS>ATOM
      1 C         142.9796  137.9974  161.8584 C.ar    1  UNL1        0.2181
      2 N         144.1880  138.8353  162.1542 N.ar    1  UNL1       -0.1986
      3 C         144.3185  139.5209  163.4821 C.ar    1  UNL1        0.1388
      4 C         143.2406  139.3683  164.5140 C.ar    1  UNL1        0.0786
      5 S         143.0938  139.9199  165.9011 S.2     1  UNL1       -0.0826
      6 C         141.7947  139.4228  166.4625 C.ar    1  UNL1        0.0311
      7 C         141.1386  138.5640  165.4224 C.ar    1  UNL1        0.0263
      8 C         142.0322  138.5303  164.2181 C.ar    1  UNL1        0.0933
      9 N         141.9017  137.8448  162.8903 N.ar    1  UNL1       -0.2132
     10 C         141.2477  139.7305  167.8249 C.ar    1  UNL1        0.0060
     11 C         139.7994  140.0846  167.9892 C.ar    1  UNL1        0.0005
     12 C         139.2525  140.3923  169.3517 C.ar    1  UNL1        0.0000
     13 C         140.1538  140.3459  170.5498 C.ar    1  UNL1        0.0000
     14 C         141.6021  139.9917  170.3855 C.ar    1  UNL1        0.0000
     15 C         142.1490  139.6840  169.0230 C.ar    1  UNL1        0.0005
     16 C         142.8595  138.1185  159.2659 C.3     1  UNL1        0.1108
     17 N         142.8491  137.3119  160.5305 N.pl3   1  UNL1       -0.3013
     18 H         142.7566  136.3326  160.4890 H       1  UNL1        0.1497
     19 N         145.5269  140.3589  163.7779 N.pl3   1  UNL1       -0.3176
     20 H         146.2612  139.9898  164.3201 H       1  UNL1        0.1482
     21 C         145.6167  141.7591  163.2477 C.3     1  UNL1        0.0896
     22 C         144.4500  142.6911  163.3902 C.3     1  UNL1        0.0385
     23 C         143.9468  143.4505  162.1984 C.3     1  UNL1        0.0739
     24 N         142.7601  144.3580  162.3336 N.3     1  UNL1       -0.2703
     25 C         142.5753  145.1702  163.5810 C.3     1  UNL1        0.0897
     26 C         141.7583  144.4532  161.2213 C.3     1  UNL1        0.0897
@<TRIPOS>BOND
     1    16    17    1
     2    17     1    1
     3     1     2   ar
     4     2     3   ar
     5     3    19    1
     6    19    21    1
     7    21    22    1
     8    22    23    1
     9    23    24    1
    10    24    25    1
    11    24    26    1
    12     3     4   ar
    13     4     5   ar
    14     5     6   ar
    15     6    10    1
    16    10    11   ar
    17    11    12   ar
    18    12    13   ar
    19    13    14   ar
    20    14    15   ar
    21     6     7   ar
    22     7     8   ar
    23     8     9   ar
    24     9     1   ar
    25     8     4   ar
    26    15    10   ar
    27    17    18    1
    28    19    20    1
@<TRIPOS>MOLECULE
*****
 26 28 0 0 0
SMALL
GASTEIGER

@<TRIPOS>ATOM
      1 C         141.4742  144.3939  161.9394 C.ar    1  UNL1        0.2181
      2 N         140.0324  144.0687  162.1947 N.ar    1  UNL1       -0.1986
      3 C         139.6342  143.3675  163.4596 C.ar    1  UNL1        0.1388
      4 C         140.6780  142.9916  164.4691 C.ar    1  UNL1        0.0786
      5 S         140.5869  142.2996  165.7969 S.2     1  UNL1       -0.0826
      6 C         141.9725  142.1972  166.3621 C.ar    1  UNL1        0.0311
      7 C         142.9199  142.8258  165.3838 C.ar    1  UNL1        0.0263
      8 C         142.1199  143.3167  164.2138 C.ar    1  UNL1        0.0933
      9 N         142.5180  144.0179  162.9489 N.ar    1  UNL1       -0.2132
     10 C         142.3452  141.5753  167.6753 C.ar    1  UNL1        0.0060
     11 C         143.1551  142.3526  168.6702 C.ar    1  UNL1        0.0005
     12 C         143.5278  141.7306  169.9834 C.ar    1  UNL1        0.0000
     13 C         143.0908  140.3314  170.3015 C.ar    1  UNL1        0.0000
     14 C         142.2809  139.5541  169.3066 C.ar    1  UNL1        0.0000
     15 C         141.9082  140.1761  167.9934 C.ar    1  UNL1        0.0005
     16 C         140.8474  145.3686  159.6141 C.3     1  UNL1        0.1108
     17 N         141.8724  145.0950  160.6745 N.pl3   1  UNL1       -0.3013
     18 H         142.8065  145.3757  160.5403 H       1  UNL1        0.1497
     19 N         138.1922  143.0424  163.7148 N.pl3   1  UNL1       -0.3176
     20 H         137.7277  143.4380  164.4874 H       1  UNL1        0.1482
     21 C         137.4581  142.1145  162.7930 C.3     1  UNL1        0.0896
     22 C         137.7396  140.6416  162.8311 C.3     1  UNL1        0.0385
     23 C         138.1589  139.9912  164.1160 C.3     1  UNL1        0.0739
     24 N         138.9730  138.7316  164.0884 N.3     1  UNL1       -0.2703
     25 C         138.7756  137.7350  162.9849 C.3     1  UNL1        0.0897
     26 C         139.9845  138.4687  165.1644 C.3     1  UNL1        0.0897
@<TRIPOS>BOND
     1    16    17    1
     2    17     1    1
     3     1     2   ar
     4     2     3   ar
     5     3    19    1
     6    19    21    1
     7    21    22    1
     8    22    23    1
     9    23    24    1
    10    24    25    1
    11    24    26    1
    12     3     4   ar
    13     4     5   ar
    14     5     6   ar
    15     6    10    1
    16    10    11   ar
    17    11    12   ar
    18    12    13   ar
    19    13    14   ar
    20    14    15   ar
    21     6     7   ar
    22     7     8   ar
    23     8     9   ar
    24     9     1   ar
    25     8     4   ar
    26    15    10   ar
    27    17    18    1
    28    19    20    1
@<TRIPOS>MOLECULE
*****
 26 28 0 0 0
SMALL
GASTEIGER

@<TRIPOS>ATOM
      1 C         138.0565  140.4974  162.6282 C.ar    1  UNL1        0.2181
      2 N         138.4587  141.8351  162.0818 N.ar    1  UNL1       -0.1986
      3 C         139.2703  142.7756  162.9227 C.ar    1  UNL1        0.1388
      4 C         139.6797  142.3781  164.3099 C.ar    1  UNL1        0.0786
      5 S         140.4744  143.0897  165.3644 S.2     1  UNL1       -0.0826
      6 C         140.5634  142.1917  166.5626 C.ar    1  UNL1        0.0311
      7 C         139.8236  140.9251  166.2486 C.ar    1  UNL1        0.0263
      8 C         139.2775  141.0404  164.8563 C.ar    1  UNL1        0.0933
      9 N         138.4659  140.1000  164.0155 N.ar    1  UNL1       -0.2132
     10 C         141.2683  142.5051  167.8490 C.ar    1  UNL1        0.0060
     11 C         140.5598  143.2742  168.9244 C.ar    1  UNL1        0.0005
     12 C         141.2648  143.5876  170.2108 C.ar    1  UNL1        0.0000
     13 C         142.6783  143.1320  170.4218 C.ar    1  UNL1        0.0000
     14 C         143.3868  142.3629  169.3464 C.ar    1  UNL1        0.0000
     15 C         142.6818  142.0495  168.0600 C.ar    1  UNL1        0.0005
     16 C         137.6609  138.1222  161.6527 C.3     1  UNL1        0.1108
     17 N         137.2449  139.5570  161.7874 N.pl3   1  UNL1       -0.3013
     18 H         136.4391  139.8815  161.3240 H       1  UNL1        0.1497
     19 N         139.6725  144.1134  162.3762 N.pl3   1  UNL1       -0.3176
     20 H         139.8005  144.8758  162.9857 H       1  UNL1        0.1482
     21 C         139.8795  144.2895  160.9011 C.3     1  UNL1        0.0896
     22 C         141.2124  144.7378  160.3791 C.3     1  UNL1        0.0385
     23 C         142.4139  143.8528  160.5318 C.3     1  UNL1        0.0739
     24 N         142.8227  143.3711  161.8923 N.3     1  UNL1       -0.2703
     25 C         142.7578  141.9091  162.2210 C.3     1  UNL1        0.0897
     26 C         143.2964  144.3516  162.9239 C.3     1  UNL1        0.0897
@<TRIPOS>BOND
     1    16    17    1
     2    17     1    1
     3     1     2   ar
     4     2     3   ar
     5     3    19    1
     6    19    21    1
     7    21    22    1
     8    22    23    1
     9    23    24    1
    10    24    25    1
    11    24    26    1
    12     3     4   ar
    13     4     5   ar
    14     5     6   ar
    15     6    10    1
    16    10    11   ar
    17    11    12   ar
    18    12    13   ar
    19    13    14   ar
    20    14    15   ar
    21     6     7   ar
    22     7     8   ar
    23     8     9   ar
    24     9     1   ar
    25     8     4   ar
    26    15    10   ar
    27    17    18    1
    28    19    20    1
@<TRIPOS>MOLECULE
*****
 26 28 0 0 0
SMALL
GASTEIGER

@<TRIPOS>ATOM
      1 C         139.2456  138.5077  162.7987 C.ar    1  UNL1        0.2181
      2 N         140.6087  139.0329  162.4581 N.ar    1  UNL1       -0.1986
      3 C         141.4046  139.7777  163.4886 C.ar    1  UNL1        0.1388
      4 C         140.8373  139.9971  164.8597 C.ar    1  UNL1        0.0786
      5 S         141.3841  140.6889  166.0732 S.2     1  UNL1       -0.0826
      6 C         140.3589  140.5911  167.1638 C.ar    1  UNL1        0.0311
      7 C         139.1785  139.8390  166.6243 C.ar    1  UNL1        0.0263
      8 C         139.4742  139.4719  165.2003 C.ar    1  UNL1        0.0933
      9 N         138.6784  138.7271  164.1698 N.ar    1  UNL1       -0.2132
     10 C         140.4908  141.1478  168.5504 C.ar    1  UNL1        0.0060
     11 C         140.4400  142.6306  168.7713 C.ar    1  UNL1        0.0005
     12 C         140.5719  143.1872  170.1580 C.ar    1  UNL1        0.0000
     13 C         140.7548  142.2611  171.3237 C.ar    1  UNL1        0.0000
     14 C         140.8057  140.7783  171.1028 C.ar    1  UNL1        0.0000
     15 C         140.6737  140.2217  169.7161 C.ar    1  UNL1        0.0005
     16 C         137.2827  138.4261  161.0986 C.3     1  UNL1        0.1108
     17 N         138.4497  137.7629  161.7682 N.pl3   1  UNL1       -0.3013
     18 H         138.6933  136.8389  161.5313 H       1  UNL1        0.1497
     19 N         142.7677  140.3029  163.1479 N.pl3   1  UNL1       -0.3176
     20 H         142.8616  141.1747  162.7003 H       1  UNL1        0.1482
     21 C         143.9878  139.4999  163.4893 C.3     1  UNL1        0.0896
     22 C         145.1848  140.1739  164.0918 C.3     1  UNL1        0.0385
     23 C         145.6705  141.4789  163.5342 C.3     1  UNL1        0.0739
     24 N         144.8146  142.7060  163.6427 N.3     1  UNL1       -0.2703
     25 C         144.2981  143.1442  164.9810 C.3     1  UNL1        0.0897
     26 C         144.4753  143.4948  162.4128 C.3     1  UNL1        0.0897
@<TRIPOS>BOND
     1    16    17    1
     2    17     1    1
     3     1     2   ar
     4     2     3   ar
     5     3    19    1
     6    19    21    1
     7    21    22    1
     8    22    23    1
     9    23    24    1
    10    24    25    1
    11    24    26    1
    12     3     4   ar
    13     4     5   ar
    14     5     6   ar
    15     6    10    1
    16    10    11   ar
    17    11    12   ar
    18    12    13   ar
    19    13    14   ar
    20    14    15   ar
    21     6     7   ar
    22     7     8   ar
    23     8     9   ar
    24     9     1   ar
    25     8     4   ar
    26    15    10   ar
    27    17    18    1
    28    19    20    1
