@<TRIPOS>MOLECULE
*****
 33 37 0 0 0
SMALL
GASTEIGER

@<TRIPOS>ATOM
      1 C         143.0003  144.2648  162.7044 C.3     1  UNL1        0.2355
      2 O         142.3469  144.3891  161.3599 O.3     1  UNL1       -0.3290
      3 C         140.8858  144.7147  161.2634 C.3     1  UNL1        0.1629
      4 C         140.0782  144.9160  162.5113 C.3     1  UNL1        0.1144
      5 C         140.7317  144.7917  163.8557 C.3     1  UNL1        0.1629
      6 O         142.1928  144.4661  163.9523 O.3     1  UNL1       -0.3290
      7 N         138.6172  145.2416  162.4147 N.3     1  UNL1       -0.2895
      8 H         138.3841  145.2576  161.4219 H       1  UNL1        0.1237
      9 C         137.6060  144.3576  163.0827 C.3     1  UNL1        0.1152
     10 C         137.8050  142.8710  163.1007 C.ar    1  UNL1        0.0748
     11 C         138.0913  142.1683  164.3946 C.ar    1  UNL1        0.0149
     12 C         138.2903  140.6816  164.4126 C.ar    1  UNL1        0.0147
     13 C         138.2028  139.8977  163.1368 C.ar    1  UNL1        0.1536
     14 C         137.9165  140.6005  161.8429 C.ar    1  UNL1        0.1349
     15 N         137.7175  142.0871  161.8248 N.ar    1  UNL1       -0.2436
     16 O         138.4018  138.4110  163.1548 O.3     1  UNL1       -0.4742
     17 C         138.6881  137.7083  164.4487 C.3     1  UNL1        0.2058
     18 C         138.7756  138.4923  165.7246 C.3     1  UNL1        0.0521
     19 C         138.5767  139.9789  165.7065 C.3     1  UNL1        0.0334
     20 C         144.4613  143.9392  162.8009 C.3     1  UNL1        0.0660
     21 C         144.9485  142.9797  163.8461 C.3     1  UNL1        0.0316
     22 C         142.6232  141.5158  167.4098 C.ar    1  UNL1        0.1388
     23 C         142.1014  140.1098  167.4387 C.ar    1  UNL1        0.0384
     24 C         142.3547  139.1918  166.2798 C.ar    1  UNL1        0.0222
     25 C         143.1297  139.6797  165.0919 C.ar    1  UNL1        0.0812
     26 N         143.3830  138.7617  163.9330 N.ar    1  UNL1       -0.2439
     27 C         144.1580  139.2497  162.7451 C.ar    1  UNL1        0.0985
     28 C         144.6799  140.6557  162.7161 C.ar    1  UNL1        0.0164
     29 C         144.4267  141.5737  163.8750 C.ar    1  UNL1       -0.0189
     30 C         143.6515  141.0857  165.0630 C.ar    1  UNL1        0.0168
     31 C         143.3983  142.0037  166.2219 C.ar    1  UNL1        0.0381
     32 C         143.3284  142.4676  169.7220 C.3     1  UNL1        0.2525
     33 O         142.3700  142.4338  168.5687 O.3     1  UNL1       -0.4714
@<TRIPOS>BOND
     1    32    33    1
     2    33    22    1
     3    22    23   ar
     4    23    24   ar
     5    24    25   ar
     6    25    26   ar
     7    26    27   ar
     8    27    28   ar
     9    28    29   ar
    10    29    21    1
    11    21    20    1
    12     1    20    1
    13     1     2    1
    14     2     3    1
    15     3     4    1
    16     4     7    1
    17     7     9    1
    18     9    10    1
    19    10    11   ar
    20    11    12   ar
    21    12    13   ar
    22    13    14   ar
    23    14    15   ar
    24    13    16    1
    25    16    17    1
    26    17    18    1
    27    18    19    1
    28     4     5    1
    29     5     6    1
    30    29    30   ar
    31    30    31   ar
    32    31    22   ar
    33    30    25   ar
    34     6     1    1
    35    15    10   ar
    36    19    12    1
    37     7     8    1
@<TRIPOS>MOLECULE
*****
 33 37 0 0 0
SMALL
GASTEIGER

@<TRIPOS>ATOM
      1 C         137.7819  142.8829  163.1325 C.3     1  UNL1        0.2355
      2 O         137.7974  141.8098  164.1804 O.3     1  UNL1       -0.3290
      3 C         137.7906  140.3656  163.7751 C.3     1  UNL1        0.1629
      4 C         137.7683  139.9946  162.3218 C.3     1  UNL1        0.1144
      5 C         137.7528  141.0677  161.2739 C.3     1  UNL1        0.1629
      6 O         137.7596  142.5120  161.6793 O.3     1  UNL1       -0.3290
      7 N         137.7615  138.5504  161.9165 N.3     1  UNL1       -0.2895
      8 H         137.9454  138.5252  160.9135 H       1  UNL1        0.1237
      9 C         138.7170  137.5873  162.5563 C.3     1  UNL1        0.1152
     10 C         140.1547  137.9713  162.7454 C.ar    1  UNL1        0.0748
     11 C         140.7672  137.9339  164.1141 C.ar    1  UNL1        0.0149
     12 C         142.2049  138.3179  164.3031 C.ar    1  UNL1        0.0147
     13 C         143.0300  138.7391  163.1234 C.ar    1  UNL1        0.1536
     14 C         142.4175  138.7764  161.7547 C.ar    1  UNL1        0.1349
     15 N         140.9799  138.3925  161.5656 N.ar    1  UNL1       -0.2436
     16 O         144.4677  139.1230  163.3125 O.3     1  UNL1       -0.4742
     17 C         145.0802  139.0857  164.6812 C.3     1  UNL1        0.2058
     18 C         144.2550  138.6644  165.8609 C.3     1  UNL1        0.0521
     19 C         142.8174  138.2805  165.6718 C.3     1  UNL1        0.0334
     20 C         137.7887  144.3271  163.5378 C.3     1  UNL1        0.0660
     21 C         138.8690  144.8482  164.4387 C.3     1  UNL1        0.0316
     22 C         140.9433  142.0866  167.3233 C.ar    1  UNL1        0.1388
     23 C         142.3711  141.6917  167.0883 C.ar    1  UNL1        0.0384
     24 C         143.1075  142.2172  165.8919 C.ar    1  UNL1        0.0222
     25 C         142.4161  143.1377  164.9304 C.ar    1  UNL1        0.0812
     26 N         143.1525  143.6632  163.7339 N.ar    1  UNL1       -0.2439
     27 C         142.4611  144.5837  162.7724 C.ar    1  UNL1        0.0985
     28 C         141.0332  144.9787  163.0073 C.ar    1  UNL1        0.0164
     29 C         140.2968  144.4532  164.2037 C.ar    1  UNL1       -0.0189
     30 C         140.9883  143.5327  165.1653 C.ar    1  UNL1        0.0168
     31 C         140.2519  143.0071  166.3618 C.ar    1  UNL1        0.0381
     32 C         139.8468  140.1072  168.5998 C.3     1  UNL1        0.2525
     33 O         140.2069  141.5611  168.5198 O.3     1  UNL1       -0.4714
@<TRIPOS>BOND
     1    32    33    1
     2    33    22    1
     3    22    23   ar
     4    23    24   ar
     5    24    25   ar
     6    25    26   ar
     7    26    27   ar
     8    27    28   ar
     9    28    29   ar
    10    29    21    1
    11    21    20    1
    12     1    20    1
    13     1     2    1
    14     2     3    1
    15     3     4    1
    16     4     7    1
    17     7     9    1
    18     9    10    1
    19    10    11   ar
    20    11    12   ar
    21    12    13   ar
    22    13    14   ar
    23    14    15   ar
    24    13    16    1
    25    16    17    1
    26    17    18    1
    27    18    19    1
    28     4     5    1
    29     5     6    1
    30    29    30   ar
    31    30    31   ar
    32    31    22   ar
    33    30    25   ar
    34     6     1    1
    35    15    10   ar
    36    19    12    1
    37     7     8    1
@<TRIPOS>MOLECULE
*****
 33 37 0 0 0
SMALL
GASTEIGER

@<TRIPOS>ATOM
      1 C         137.9939  139.9355  162.1855 C.3     1  UNL1        0.2355
      2 O         137.6436  140.6014  163.4831 O.3     1  UNL1       -0.3290
      3 C         137.5667  142.0973  163.5617 C.3     1  UNL1        0.1629
      4 C         137.8401  142.9274  162.3425 C.3     1  UNL1        0.1144
      5 C         138.1903  142.2615  161.0449 C.3     1  UNL1        0.1629
      6 O         138.2672  140.7655  160.9664 O.3     1  UNL1       -0.3290
      7 N         137.7631  144.4234  162.4210 N.3     1  UNL1       -0.2895
      8 H         137.0185  144.6456  163.0818 H       1  UNL1        0.1237
      9 C         138.9658  145.2152  162.8415 C.3     1  UNL1        0.1152
     10 C         140.3394  144.6339  162.6829 C.ar    1  UNL1        0.0748
     11 C         141.0804  144.1224  163.8826 C.ar    1  UNL1        0.0149
     12 C         142.4541  143.5411  163.7240 C.ar    1  UNL1        0.0147
     13 C         143.0867  143.4712  162.3658 C.ar    1  UNL1        0.1536
     14 C         142.3457  143.9826  161.1661 C.ar    1  UNL1        0.1349
     15 N         140.9720  144.5639  161.3246 N.ar    1  UNL1       -0.2436
     16 O         144.4604  142.8899  162.2072 O.3     1  UNL1       -0.4742
     17 C         145.2015  142.3785  163.4069 C.3     1  UNL1        0.2058
     18 C         144.5688  142.4484  164.7652 C.3     1  UNL1        0.0521
     19 C         143.1952  143.0297  164.9237 C.3     1  UNL1        0.0334
     20 C         138.0708  138.4395  162.1070 C.3     1  UNL1        0.0660
     21 C         138.8658  137.6750  163.1236 C.3     1  UNL1        0.0316
     22 C         140.1298  139.5557  167.0114 C.ar    1  UNL1        0.1388
     23 C         141.5718  139.8957  167.2462 C.ar    1  UNL1        0.0384
     24 C         142.5924  139.6088  166.1850 C.ar    1  UNL1        0.0222
     25 C         142.1711  138.9819  164.8891 C.ar    1  UNL1        0.0812
     26 N         143.1917  138.6950  163.8280 N.ar    1  UNL1       -0.2439
     27 C         142.7703  138.0681  162.5321 C.ar    1  UNL1        0.0985
     28 C         141.3283  137.7281  162.2972 C.ar    1  UNL1        0.0164
     29 C         140.3077  138.0150  163.3584 C.ar    1  UNL1       -0.0189
     30 C         140.7291  138.6419  164.6544 C.ar    1  UNL1        0.0168
     31 C         139.7085  138.9288  165.7155 C.ar    1  UNL1        0.0381
     32 C         139.5397  140.4056  169.3946 C.3     1  UNL1        0.2525
     33 O         139.1092  139.8426  168.0726 O.3     1  UNL1       -0.4714
@<TRIPOS>BOND
     1    32    33    1
     2    33    22    1
     3    22    23   ar
     4    23    24   ar
     5    24    25   ar
     6    25    26   ar
     7    26    27   ar
     8    27    28   ar
     9    28    29   ar
    10    29    21    1
    11    21    20    1
    12     1    20    1
    13     1     2    1
    14     2     3    1
    15     3     4    1
    16     4     7    1
    17     7     9    1
    18     9    10    1
    19    10    11   ar
    20    11    12   ar
    21    12    13   ar
    22    13    14   ar
    23    14    15   ar
    24    13    16    1
    25    16    17    1
    26    17    18    1
    27    18    19    1
    28     4     5    1
    29     5     6    1
    30    29    30   ar
    31    30    31   ar
    32    31    22   ar
    33    30    25   ar
    34     6     1    1
    35    15    10   ar
    36    19    12    1
    37     7     8    1
@<TRIPOS>MOLECULE
*****
 33 37 0 0 0
SMALL
GASTEIGER

@<TRIPOS>ATOM
      1 C         139.4703  137.8065  164.6617 C.3     1  UNL1        0.2355
      2 O         139.0790  137.8435  163.2141 O.3     1  UNL1       -0.3290
      3 C         140.1343  137.7797  162.1501 C.3     1  UNL1        0.1629
      4 C         141.5810  137.6790  162.5336 C.3     1  UNL1        0.1144
      5 C         141.9723  137.6420  163.9812 C.3     1  UNL1        0.1629
      6 O         140.9169  137.7057  165.0453 O.3     1  UNL1       -0.3290
      7 N         142.6363  137.6152  161.4696 N.3     1  UNL1       -0.2895
      8 H         142.1953  137.9126  160.5993 H       1  UNL1        0.1237
      9 C         143.8956  138.4175  161.6132 C.3     1  UNL1        0.1152
     10 C         143.8249  139.9122  161.7169 C.ar    1  UNL1        0.0748
     11 C         144.0289  140.5824  163.0432 C.ar    1  UNL1        0.0149
     12 C         143.9582  142.0772  163.1469 C.ar    1  UNL1        0.0147
     13 C         143.6834  142.9017  161.9243 C.ar    1  UNL1        0.1536
     14 C         143.4794  142.2314  160.5980 C.ar    1  UNL1        0.1349
     15 N         143.5501  140.7367  160.4943 N.ar    1  UNL1       -0.2436
     16 O         143.6127  144.3965  162.0280 O.3     1  UNL1       -0.4742
     17 C         143.8167  145.0667  163.3544 C.3     1  UNL1        0.2058
     18 C         144.0915  144.2422  164.5770 C.3     1  UNL1        0.0521
     19 C         144.1622  142.7475  164.4732 C.3     1  UNL1        0.0334
     20 C         138.4150  137.8702  165.7258 C.3     1  UNL1        0.0660
     21 C         138.0575  139.1867  166.3497 C.3     1  UNL1        0.0316
     22 C         138.6041  142.7747  163.6893 C.ar    1  UNL1        0.1388
     23 C         139.6779  143.7769  163.9931 C.ar    1  UNL1        0.0384
     24 C         140.5696  143.5832  165.1836 C.ar    1  UNL1        0.0222
     25 C         140.3874  142.3872  166.0704 C.ar    1  UNL1        0.0812
     26 N         141.2791  142.1935  167.2609 N.ar    1  UNL1       -0.2439
     27 C         141.0969  140.9975  168.1477 C.ar    1  UNL1        0.0985
     28 C         140.0230  139.9952  167.8440 C.ar    1  UNL1        0.0164
     29 C         139.1314  140.1889  166.6534 C.ar    1  UNL1       -0.0189
     30 C         139.3136  141.3850  165.7666 C.ar    1  UNL1        0.0168
     31 C         138.4219  141.5787  164.5761 C.ar    1  UNL1        0.0381
     32 C         138.1222  142.4315  161.1595 C.3     1  UNL1        0.2525
     33 O         137.7124  142.9685  162.4988 O.3     1  UNL1       -0.4714
@<TRIPOS>BOND
     1    32    33    1
     2    33    22    1
     3    22    23   ar
     4    23    24   ar
     5    24    25   ar
     6    25    26   ar
     7    26    27   ar
     8    27    28   ar
     9    28    29   ar
    10    29    21    1
    11    21    20    1
    12     1    20    1
    13     1     2    1
    14     2     3    1
    15     3     4    1
    16     4     7    1
    17     7     9    1
    18     9    10    1
    19    10    11   ar
    20    11    12   ar
    21    12    13   ar
    22    13    14   ar
    23    14    15   ar
    24    13    16    1
    25    16    17    1
    26    17    18    1
    27    18    19    1
    28     4     5    1
    29     5     6    1
    30    29    30   ar
    31    30    31   ar
    32    31    22   ar
    33    30    25   ar
    34     6     1    1
    35    15    10   ar
    36    19    12    1
    37     7     8    1
@<TRIPOS>MOLECULE
*****
 33 37 0 0 0
SMALL
GASTEIGER

@<TRIPOS>ATOM
      1 C         142.1319  137.8970  164.1320 C.3     1  UNL1        0.2355
      2 O         142.6308  138.0474  162.7255 O.3     1  UNL1       -0.3290
      3 C         143.7939  138.9488  162.4346 C.3     1  UNL1        0.1629
      4 C         144.4582  139.6998  163.5503 C.3     1  UNL1        0.1144
      5 C         143.9593  139.5494  164.9569 C.3     1  UNL1        0.1629
      6 O         142.7961  138.6480  165.2477 O.3     1  UNL1       -0.3290
      7 N         145.6213  140.6012  163.2594 N.3     1  UNL1       -0.2895
      8 H         145.9354  140.3809  162.3143 H       1  UNL1        0.1237
      9 C         145.4506  142.0901  163.3230 C.3     1  UNL1        0.1152
     10 C         144.3607  142.7544  162.5350 C.ar    1  UNL1        0.0748
     11 C         143.3892  143.6681  163.2214 C.ar    1  UNL1        0.0149
     12 C         142.2993  144.3324  162.4333 C.ar    1  UNL1        0.0147
     13 C         142.1810  144.0829  160.9590 C.ar    1  UNL1        0.1536
     14 C         143.1526  143.1691  160.2726 C.ar    1  UNL1        0.1349
     15 N         144.2424  142.5048  161.0606 N.ar    1  UNL1       -0.2436
     16 O         141.0911  144.7472  160.1709 O.3     1  UNL1       -0.4742
     17 C         140.1196  145.6610  160.8573 C.3     1  UNL1        0.2058
     18 C         140.2379  145.9105  162.3317 C.3     1  UNL1        0.0521
     19 C         141.3278  145.2462  163.1197 C.3     1  UNL1        0.0334
     20 C         140.9688  136.9956  164.4229 C.3     1  UNL1        0.0660
     21 C         139.6285  137.5833  164.7522 C.3     1  UNL1        0.0316
     22 C         139.6237  141.9650  165.7771 C.ar    1  UNL1        0.1388
     23 C         138.9882  142.9527  164.8442 C.ar    1  UNL1        0.0384
     24 C         138.3543  142.4799  163.5696 C.ar    1  UNL1        0.0222
     25 C         138.3559  141.0194  163.2279 C.ar    1  UNL1        0.0812
     26 N         137.7220  140.5466  161.9533 N.ar    1  UNL1       -0.2439
     27 C         137.7235  139.0861  161.6116 C.ar    1  UNL1        0.0985
     28 C         138.3591  138.0982  162.5446 C.ar    1  UNL1        0.0164
     29 C         138.9930  138.5710  163.8192 C.ar    1  UNL1       -0.0189
     30 C         138.9914  140.0316  164.1609 C.ar    1  UNL1        0.0168
     31 C         139.6253  140.5044  165.4355 C.ar    1  UNL1        0.0381
     32 C         140.3362  141.5201  168.2356 C.3     1  UNL1        0.2525
     33 O         140.2576  142.4378  167.0517 O.3     1  UNL1       -0.4714
@<TRIPOS>BOND
     1    32    33    1
     2    33    22    1
     3    22    23   ar
     4    23    24   ar
     5    24    25   ar
     6    25    26   ar
     7    26    27   ar
     8    27    28   ar
     9    28    29   ar
    10    29    21    1
    11    21    20    1
    12     1    20    1
    13     1     2    1
    14     2     3    1
    15     3     4    1
    16     4     7    1
    17     7     9    1
    18     9    10    1
    19    10    11   ar
    20    11    12   ar
    21    12    13   ar
    22    13    14   ar
    23    14    15   ar
    24    13    16    1
    25    16    17    1
    26    17    18    1
    27    18    19    1
    28     4     5    1
    29     5     6    1
    30    29    30   ar
    31    30    31   ar
    32    31    22   ar
    33    30    25   ar
    34     6     1    1
    35    15    10   ar
    36    19    12    1
    37     7     8    1
@<TRIPOS>MOLECULE
*****
 33 37 0 0 0
SMALL
GASTEIGER

@<TRIPOS>ATOM
      1 C         143.0007  144.0522  162.4995 C.3     1  UNL1        0.2355
      2 O         142.3842  144.7733  163.6614 O.3     1  UNL1       -0.3290
      3 C         140.9310  145.1432  163.6290 C.3     1  UNL1        0.1629
      4 C         140.0941  144.7921  162.4346 C.3     1  UNL1        0.1144
      5 C         140.7105  144.0710  161.2727 C.3     1  UNL1        0.1629
      6 O         142.1639  143.7011  161.3052 O.3     1  UNL1       -0.3290
      7 N         138.6408  145.1620  162.4023 N.3     1  UNL1       -0.2895
      8 H         138.3712  145.2110  161.4197 H       1  UNL1        0.1237
      9 C         137.6295  144.2902  163.0858 C.3     1  UNL1        0.1152
     10 C         137.8255  142.8036  163.1255 C.ar    1  UNL1        0.0748
     11 C         138.1492  142.1242  164.4230 C.ar    1  UNL1        0.0149
     12 C         138.3452  140.6375  164.4626 C.ar    1  UNL1        0.0147
     13 C         138.2174  139.8304  163.2048 C.ar    1  UNL1        0.1536
     14 C         137.8936  140.5098  161.9073 C.ar    1  UNL1        0.1349
     15 N         137.6977  141.9964  161.8676 N.ar    1  UNL1       -0.2436
     16 O         138.4134  138.3437  163.2444 O.3     1  UNL1       -0.4742
     17 C         138.7372  137.6642  164.5419 C.3     1  UNL1        0.2058
     18 C         138.8649  138.4714  165.7998 C.3     1  UNL1        0.0521
     19 C         138.6690  139.9580  165.7601 C.3     1  UNL1        0.0334
     20 C         144.4540  143.6822  162.5319 C.3     1  UNL1        0.0660
     21 C         144.9837  142.8191  163.6384 C.3     1  UNL1        0.0316
     22 C         143.6399  139.0532  161.5739 C.ar    1  UNL1        0.1388
     23 C         142.7271  138.0954  162.2805 C.ar    1  UNL1        0.0384
     24 C         142.2621  138.3929  163.6752 C.ar    1  UNL1        0.0222
     25 C         142.7101  139.6482  164.3634 C.ar    1  UNL1        0.0812
     26 N         142.2452  139.9456  165.7582 N.ar    1  UNL1       -0.2439
     27 C         142.6931  141.2009  166.4464 C.ar    1  UNL1        0.0985
     28 C         143.6060  142.1587  165.7398 C.ar    1  UNL1        0.0164
     29 C         144.0709  141.8613  164.3450 C.ar    1  UNL1       -0.0189
     30 C         143.6229  140.6060  163.6568 C.ar    1  UNL1        0.0168
     31 C         144.0878  140.3085  162.2621 C.ar    1  UNL1        0.0381
     32 C         143.7469  139.6828  159.0555 C.3     1  UNL1        0.2525
     33 O         144.1048  138.7558  160.1791 O.3     1  UNL1       -0.4714
@<TRIPOS>BOND
     1    32    33    1
     2    33    22    1
     3    22    23   ar
     4    23    24   ar
     5    24    25   ar
     6    25    26   ar
     7    26    27   ar
     8    27    28   ar
     9    28    29   ar
    10    29    21    1
    11    21    20    1
    12     1    20    1
    13     1     2    1
    14     2     3    1
    15     3     4    1
    16     4     7    1
    17     7     9    1
    18     9    10    1
    19    10    11   ar
    20    11    12   ar
    21    12    13   ar
    22    13    14   ar
    23    14    15   ar
    24    13    16    1
    25    16    17    1
    26    17    18    1
    27    18    19    1
    28     4     5    1
    29     5     6    1
    30    29    30   ar
    31    30    31   ar
    32    31    22   ar
    33    30    25   ar
    34     6     1    1
    35    15    10   ar
    36    19    12    1
    37     7     8    1
@<TRIPOS>MOLECULE
*****
 33 37 0 0 0
SMALL
GASTEIGER

@<TRIPOS>ATOM
      1 C         139.4422  137.7762  164.6310 C.3     1  UNL1        0.2355
      2 O         140.8861  137.6450  165.0154 O.3     1  UNL1       -0.3290
      3 C         141.9422  137.5783  163.9522 C.3     1  UNL1        0.1629
      4 C         141.5543  137.6430  162.5046 C.3     1  UNL1        0.1144
      5 C         140.1103  137.7742  162.1203 C.3     1  UNL1        0.1629
      6 O         139.0542  137.8409  163.1835 O.3     1  UNL1       -0.3290
      7 N         142.6103  137.5763  161.4415 N.3     1  UNL1       -0.2895
      8 H         142.1775  137.8986  160.5759 H       1  UNL1        0.1237
      9 C         143.8858  138.3493  161.6018 C.3     1  UNL1        0.1152
     10 C         143.8483  139.8453  161.7041 C.ar    1  UNL1        0.0748
     11 C         143.9797  140.5090  163.0429 C.ar    1  UNL1        0.0149
     12 C         143.9422  142.0051  163.1452 C.ar    1  UNL1        0.0147
     13 C         143.7734  142.8374  161.9088 C.ar    1  UNL1        0.1536
     14 C         143.6420  142.1737  160.5700 C.ar    1  UNL1        0.1349
     15 N         143.6795  140.6777  160.4677 N.ar    1  UNL1       -0.2436
     16 O         143.7359  144.3335  162.0110 O.3     1  UNL1       -0.4742
     17 C         143.8673  144.9972  163.3498 C.3     1  UNL1        0.2058
     18 C         144.0361  144.1649  164.5862 C.3     1  UNL1        0.0521
     19 C         144.0736  142.6689  164.4839 C.3     1  UNL1        0.0334
     20 C         138.3861  137.8429  165.6941 C.3     1  UNL1        0.0660
     21 C         137.9877  139.1679  166.2735 C.3     1  UNL1        0.0316
     22 C         141.3758  140.4182  168.9581 C.ar    1  UNL1        0.1388
     23 C         142.1729  141.6475  168.6367 C.ar    1  UNL1        0.0384
     24 C         141.8407  142.4601  167.4204 C.ar    1  UNL1        0.0222
     25 C         140.7113  142.0433  166.5255 C.ar    1  UNL1        0.0812
     26 N         140.3791  142.8559  165.3092 N.ar    1  UNL1       -0.2439
     27 C         139.2497  142.4391  164.4144 C.ar    1  UNL1        0.0985
     28 C         138.4525  141.2097  164.7358 C.ar    1  UNL1        0.0164
     29 C         138.7848  140.3972  165.9521 C.ar    1  UNL1       -0.0189
     30 C         139.9142  140.8140  166.8470 C.ar    1  UNL1        0.0168
     31 C         140.2465  140.0015  168.0633 C.ar    1  UNL1        0.0381
     32 C         142.7102  138.4934  170.0825 C.3     1  UNL1        0.2525
     33 O         141.7081  139.6057  170.1744 O.3     1  UNL1       -0.4714
@<TRIPOS>BOND
     1    32    33    1
     2    33    22    1
     3    22    23   ar
     4    23    24   ar
     5    24    25   ar
     6    25    26   ar
     7    26    27   ar
     8    27    28   ar
     9    28    29   ar
    10    29    21    1
    11    21    20    1
    12     1    20    1
    13     1     2    1
    14     2     3    1
    15     3     4    1
    16     4     7    1
    17     7     9    1
    18     9    10    1
    19    10    11   ar
    20    11    12   ar
    21    12    13   ar
    22    13    14   ar
    23    14    15   ar
    24    13    16    1
    25    16    17    1
    26    17    18    1
    27    18    19    1
    28     4     5    1
    29     5     6    1
    30    29    30   ar
    31    30    31   ar
    32    31    22   ar
    33    30    25   ar
    34     6     1    1
    35    15    10   ar
    36    19    12    1
    37     7     8    1
@<TRIPOS>MOLECULE
*****
 33 37 0 0 0
SMALL
GASTEIGER

@<TRIPOS>ATOM
      1 C         138.1255  139.8371  162.2916 C.3     1  UNL1        0.2355
      2 O         137.5675  140.5242  163.5027 O.3     1  UNL1       -0.3290
      3 C         137.4364  142.0182  163.5236 C.3     1  UNL1        0.1629
      4 C         137.8633  142.8254  162.3335 C.3     1  UNL1        0.1144
      5 C         138.4213  142.1383  161.1224 C.3     1  UNL1        0.1629
      6 O         138.5524  140.6442  161.1015 O.3     1  UNL1       -0.3290
      7 N         137.7322  144.3194  162.3544 N.3     1  UNL1       -0.2895
      8 H         136.9832  144.5401  163.0106 H       1  UNL1        0.1237
      9 C         138.9071  145.1701  162.7364 C.3     1  UNL1        0.1152
     10 C         140.2992  144.6256  162.6125 C.ar    1  UNL1        0.0748
     11 C         141.0611  144.2276  163.8417 C.ar    1  UNL1        0.0149
     12 C         142.4533  143.6830  163.7177 C.ar    1  UNL1        0.0147
     13 C         143.0836  143.5365  162.3645 C.ar    1  UNL1        0.1536
     14 C         142.3217  143.9345  161.1352 C.ar    1  UNL1        0.1349
     15 N         140.9296  144.4791  161.2592 N.ar    1  UNL1       -0.2436
     16 O         144.4758  142.9919  162.2405 O.3     1  UNL1       -0.4742
     17 C         145.2376  142.5938  163.4698 C.3     1  UNL1        0.2058
     18 C         144.6073  142.7404  164.8231 C.3     1  UNL1        0.0521
     19 C         143.2152  143.2849  164.9470 C.3     1  UNL1        0.0334
     20 C         138.2565  138.3430  162.2707 C.3     1  UNL1        0.0660
     21 C         138.6548  137.6075  163.5159 C.3     1  UNL1        0.0316
     22 C         143.0711  138.4141  163.2074 C.ar    1  UNL1        0.1388
     23 C         143.7800  139.1394  164.3126 C.ar    1  UNL1        0.0384
     24 C         143.0168  139.5958  165.5206 C.ar    1  UNL1        0.0222
     25 C         141.5447  139.3270  165.6234 C.ar    1  UNL1        0.0812
     26 N         140.7815  139.7834  166.8314 N.ar    1  UNL1       -0.2439
     27 C         139.3095  139.5145  166.9342 C.ar    1  UNL1        0.0985
     28 C         138.6005  138.7892  165.8290 C.ar    1  UNL1        0.0164
     29 C         139.3637  138.3328  164.6210 C.ar    1  UNL1       -0.0189
     30 C         140.8358  138.6017  164.5182 C.ar    1  UNL1        0.0168
     31 C         141.5990  138.1453  163.3103 C.ar    1  UNL1        0.0381
     32 C         144.0499  138.8965  160.8496 C.3     1  UNL1        0.2525
     33 O         143.8343  137.9577  161.9994 O.3     1  UNL1       -0.4714
@<TRIPOS>BOND
     1    32    33    1
     2    33    22    1
     3    22    23   ar
     4    23    24   ar
     5    24    25   ar
     6    25    26   ar
     7    26    27   ar
     8    27    28   ar
     9    28    29   ar
    10    29    21    1
    11    21    20    1
    12     1    20    1
    13     1     2    1
    14     2     3    1
    15     3     4    1
    16     4     7    1
    17     7     9    1
    18     9    10    1
    19    10    11   ar
    20    11    12   ar
    21    12    13   ar
    22    13    14   ar
    23    14    15   ar
    24    13    16    1
    25    16    17    1
    26    17    18    1
    27    18    19    1
    28     4     5    1
    29     5     6    1
    30    29    30   ar
    31    30    31   ar
    32    31    22   ar
    33    30    25   ar
    34     6     1    1
    35    15    10   ar
    36    19    12    1
    37     7     8    1
@<TRIPOS>MOLECULE
*****
 33 37 0 0 0
SMALL
GASTEIGER

@<TRIPOS>ATOM
      1 C         141.7373  138.3325  164.4814 C.3     1  UNL1        0.2355
      2 O         142.4973  139.2121  165.4294 O.3     1  UNL1       -0.3290
      3 C         143.7342  139.9224  164.9654 C.3     1  UNL1        0.1629
      4 C         144.2112  139.7532  163.5533 C.3     1  UNL1        0.1144
      5 C         143.4512  138.8736  162.6053 C.3     1  UNL1        0.1629
      6 O         142.2142  138.1632  163.0694 O.3     1  UNL1       -0.3290
      7 N         145.4481  140.4635  163.0893 N.3     1  UNL1       -0.2895
      8 H         145.5138  140.3133  162.0825 H       1  UNL1        0.1237
      9 C         145.5961  141.9387  163.3175 C.3     1  UNL1        0.1152
     10 C         144.4198  142.8492  163.1246 C.ar    1  UNL1        0.0748
     11 C         143.7843  142.9771  161.7719 C.ar    1  UNL1        0.0149
     12 C         142.6079  143.8876  161.5791 C.ar    1  UNL1        0.0147
     13 C         142.0672  144.6702  162.7389 C.ar    1  UNL1        0.1536
     14 C         142.7028  144.5423  164.0915 C.ar    1  UNL1        0.1349
     15 N         143.8791  143.6318  164.2844 N.ar    1  UNL1       -0.2436
     16 O         140.8908  145.5808  162.5460 O.3     1  UNL1       -0.4742
     17 C         140.2552  145.7087  161.1934 C.3     1  UNL1        0.2058
     18 C         140.7960  144.9260  160.0336 C.3     1  UNL1        0.0521
     19 C         141.9723  144.0155  160.2264 C.3     1  UNL1        0.0334
     20 C         140.5003  137.6222  164.9454 C.3     1  UNL1        0.0660
     21 C         139.1788  138.3318  164.9334 C.3     1  UNL1        0.0316
     22 C         138.8647  142.7845  164.3635 C.ar    1  UNL1        0.1388
     23 C         138.3233  143.3399  163.0796 C.ar    1  UNL1        0.0384
     24 C         137.8866  142.4111  161.9857 C.ar    1  UNL1        0.0222
     25 C         137.9913  140.9269  162.1757 C.ar    1  UNL1        0.0812
     26 N         137.5546  139.9981  161.0818 N.ar    1  UNL1       -0.2439
     27 C         137.6593  138.5139  161.2717 C.ar    1  UNL1        0.0985
     28 C         138.2007  137.9584  162.5556 C.ar    1  UNL1        0.0164
     29 C         138.6374  138.8872  163.6496 C.ar    1  UNL1       -0.0189
     30 C         138.5327  140.3715  163.4595 C.ar    1  UNL1        0.0168
     31 C         138.9694  141.3003  164.5535 C.ar    1  UNL1        0.0381
     32 C         138.5390  144.9790  165.7155 C.3     1  UNL1        0.2525
     33 O         139.3014  143.7132  165.4574 O.3     1  UNL1       -0.4714
@<TRIPOS>BOND
     1    32    33    1
     2    33    22    1
     3    22    23   ar
     4    23    24   ar
     5    24    25   ar
     6    25    26   ar
     7    26    27   ar
     8    27    28   ar
     9    28    29   ar
    10    29    21    1
    11    21    20    1
    12     1    20    1
    13     1     2    1
    14     2     3    1
    15     3     4    1
    16     4     7    1
    17     7     9    1
    18     9    10    1
    19    10    11   ar
    20    11    12   ar
    21    12    13   ar
    22    13    14   ar
    23    14    15   ar
    24    13    16    1
    25    16    17    1
    26    17    18    1
    27    18    19    1
    28     4     5    1
    29     5     6    1
    30    29    30   ar
    31    30    31   ar
    32    31    22   ar
    33    30    25   ar
    34     6     1    1
    35    15    10   ar
    36    19    12    1
    37     7     8    1
