@<TRIPOS>MOLECULE
*****
 29 32 0 0 0
SMALL
GASTEIGER

@<TRIPOS>ATOM
      1 O         143.4134  141.6351  167.2005 O.3     1  UNL1       -0.3768
      2 C         142.3186  141.3486  166.2159 C.3     1  UNL1        0.1456
      3 H         143.5961  140.8378  167.7218 H       1  UNL1        0.2112
      4 C         143.3042  141.4526  165.0898 C.ar    1  UNL1        0.0264
      5 C         143.3445  142.6880  164.2401 C.ar    1  UNL1        0.0015
      6 C         144.3301  142.7919  163.1141 C.ar    1  UNL1        0.0204
      7 C         145.2753  141.6604  162.8379 C.ar    1  UNL1        0.0989
      8 N         145.2350  140.4250  163.6877 N.ar    1  UNL1       -0.2426
      9 C         144.2495  140.3211  164.8136 C.ar    1  UNL1        0.0972
     10 C         141.3331  141.2446  167.3419 C.ar    1  UNL1        0.0264
     11 C         141.0754  142.4295  168.2248 C.ar    1  UNL1        0.0015
     12 C         140.0898  142.3255  169.3509 C.ar    1  UNL1        0.0204
     13 C         139.3621  141.0367  169.5939 C.ar    1  UNL1        0.0989
     14 N         139.6198  139.8517  168.7110 N.ar    1  UNL1       -0.2426
     15 C         140.6053  139.9557  167.5850 C.ar    1  UNL1        0.0972
     16 C         141.2239  141.0621  165.2313 C.3     1  UNL1        0.1131
     17 N         141.2336  139.7812  164.4506 N.3     1  UNL1       -0.2655
     18 C         141.2532  139.8170  162.9512 C.3     1  UNL1        0.0897
     19 C         141.2629  138.5362  162.1705 C.3     1  UNL1        0.0862
     20 N         141.2528  137.2196  162.8893 N.3     1  UNL1       -0.2951
     21 C         141.2332  137.1839  164.3887 C.3     1  UNL1        0.0862
     22 C         141.2235  138.4647  165.1694 C.3     1  UNL1        0.0897
     23 H         142.0894  136.7164  162.5937 H       1  UNL1        0.1233
     24 C         140.1195  142.0564  165.0273 C.ar    1  UNL1       -0.0049
     25 C         140.4096  143.5260  165.1049 C.ar    1  UNL1       -0.0029
     26 C         139.3052  144.5203  164.9010 C.ar    1  UNL1       -0.0003
     27 C         137.9107  144.0450  164.6194 C.ar    1  UNL1       -0.0000
     28 C         137.6205  142.5754  164.5418 C.ar    1  UNL1       -0.0003
     29 C         138.7249  141.5811  164.7458 C.ar    1  UNL1       -0.0029
@<TRIPOS>BOND
     1     1     2    1
     2     2     4    1
     3     4     5   ar
     4     5     6   ar
     5     6     7   ar
     6     7     8   ar
     7     8     9   ar
     8     2    10    1
     9    10    11   ar
    10    11    12   ar
    11    12    13   ar
    12    13    14   ar
    13    14    15   ar
    14     2    16    1
    15    16    24    1
    16    24    25   ar
    17    25    26   ar
    18    26    27   ar
    19    27    28   ar
    20    28    29   ar
    21    16    17    1
    22    17    18    1
    23    18    19    1
    24    19    20    1
    25    20    21    1
    26    21    22    1
    27     9     4   ar
    28    15    10   ar
    29    29    24   ar
    30    22    17    1
    31     1     3    1
    32    20    23    1
@<TRIPOS>MOLECULE
*****
 29 32 0 0 0
SMALL
GASTEIGER

@<TRIPOS>ATOM
      1 O         143.4155  141.6512  167.2027 O.3     1  UNL1       -0.3768
      2 C         142.3225  141.3620  166.2169 C.3     1  UNL1        0.1456
      3 H         143.7002  142.5736  167.1085 H       1  UNL1        0.2112
      4 C         141.3371  141.2501  167.3424 C.ar    1  UNL1        0.0264
      5 C         141.0776  142.4295  168.2320 C.ar    1  UNL1        0.0015
      6 C         140.0922  142.3175  169.3574 C.ar    1  UNL1        0.0204
      7 C         139.3664  141.0262  169.5931 C.ar    1  UNL1        0.0989
      8 N         139.6260  139.8468  168.7034 N.ar    1  UNL1       -0.2426
      9 C         140.6113  139.9587  167.5780 C.ar    1  UNL1        0.0972
     10 C         143.3079  141.4739  165.0916 C.ar    1  UNL1        0.0264
     11 C         143.3400  142.7104  164.2430 C.ar    1  UNL1        0.0015
     12 C         144.3255  142.8223  163.1176 C.ar    1  UNL1        0.0204
     13 C         145.2788  141.6977  162.8408 C.ar    1  UNL1        0.0989
     14 N         145.2466  140.4612  163.6894 N.ar    1  UNL1       -0.2426
     15 C         144.2612  140.3493  164.8148 C.ar    1  UNL1        0.0972
     16 C         141.2296  141.0728  165.2311 C.3     1  UNL1        0.1131
     17 N         141.2432  139.7920  164.4504 N.3     1  UNL1       -0.2655
     18 C         141.2389  138.4755  165.1693 C.3     1  UNL1        0.0897
     19 C         141.2525  137.1947  164.3887 C.3     1  UNL1        0.0862
     20 N         141.2705  137.2305  162.8891 N.3     1  UNL1       -0.2951
     21 C         141.2749  138.5470  162.1703 C.3     1  UNL1        0.0862
     22 C         141.2612  139.8278  162.9510 C.3     1  UNL1        0.0897
     23 H         140.4431  136.7249  162.5726 H       1  UNL1        0.1233
     24 C         140.1229  142.0644  165.0260 C.ar    1  UNL1       -0.0049
     25 C         140.4086  143.5347  165.1078 C.ar    1  UNL1       -0.0029
     26 C         139.3020  144.5263  164.9026 C.ar    1  UNL1       -0.0003
     27 C         137.9097  144.0476  164.6157 C.ar    1  UNL1       -0.0000
     28 C         137.6240  142.5773  164.5339 C.ar    1  UNL1       -0.0003
     29 C         138.7306  141.5857  164.7391 C.ar    1  UNL1       -0.0029
@<TRIPOS>BOND
     1     1     2    1
     2     2     4    1
     3     4     5   ar
     4     5     6   ar
     5     6     7   ar
     6     7     8   ar
     7     8     9   ar
     8     2    10    1
     9    10    11   ar
    10    11    12   ar
    11    12    13   ar
    12    13    14   ar
    13    14    15   ar
    14     2    16    1
    15    16    24    1
    16    24    25   ar
    17    25    26   ar
    18    26    27   ar
    19    27    28   ar
    20    28    29   ar
    21    16    17    1
    22    17    18    1
    23    18    19    1
    24    19    20    1
    25    20    21    1
    26    21    22    1
    27     9     4   ar
    28    15    10   ar
    29    29    24   ar
    30    22    17    1
    31     1     3    1
    32    20    23    1
@<TRIPOS>MOLECULE
*****
 29 32 0 0 0
SMALL
GASTEIGER

@<TRIPOS>ATOM
      1 O         139.9830  138.5708  165.6526 O.3     1  UNL1       -0.3768
      2 C         140.4293  139.8187  164.9502 C.3     1  UNL1        0.1456
      3 H         140.5549  137.8315  165.3930 H       1  UNL1        0.2112
      4 C         140.8992  140.3860  166.2569 C.ar    1  UNL1        0.0264
      5 C         142.1316  139.8375  166.9129 C.ar    1  UNL1        0.0015
      6 C         142.6015  140.4048  168.2195 C.ar    1  UNL1        0.0204
      7 C         141.8390  141.5206  168.8702 C.ar    1  UNL1        0.0989
      8 N         140.6066  142.0692  168.2143 N.ar    1  UNL1       -0.2426
      9 C         140.1367  141.5019  166.9076 C.ar    1  UNL1        0.0972
     10 C         139.9594  139.2514  163.6436 C.ar    1  UNL1        0.0264
     11 C         138.4916  139.1730  163.3445 C.ar    1  UNL1        0.0015
     12 C         138.0217  138.6057  162.0378 C.ar    1  UNL1        0.0204
     13 C         139.0196  138.1167  161.0303 C.ar    1  UNL1        0.0989
     14 N         140.4873  138.1951  161.3294 N.ar    1  UNL1       -0.2426
     15 C         140.9573  138.7624  162.6360 C.ar    1  UNL1        0.0972
     16 C         140.8756  141.0667  164.2479 C.3     1  UNL1        0.1131
     17 N         139.8716  141.9316  163.5450 N.3     1  UNL1       -0.2655
     18 C         138.7050  142.4935  164.3022 C.3     1  UNL1        0.0897
     19 C         137.7011  143.3584  163.5993 C.3     1  UNL1        0.0862
     20 N         137.8637  143.6615  162.1392 N.3     1  UNL1       -0.2951
     21 C         139.0303  143.0996  161.3821 C.3     1  UNL1        0.0862
     22 C         140.0343  142.2346  162.0849 C.3     1  UNL1        0.0897
     23 H         137.9183  144.6764  162.0535 H       1  UNL1        0.1233
     24 C         142.3259  141.4498  164.2483 C.ar    1  UNL1       -0.0049
     25 C         143.3570  140.4835  163.7454 C.ar    1  UNL1       -0.0029
     26 C         144.8073  140.8666  163.7459 C.ar    1  UNL1       -0.0003
     27 C         145.2264  142.2160  164.2493 C.ar    1  UNL1       -0.0000
     28 C         144.1952  143.1823  164.7522 C.ar    1  UNL1       -0.0003
     29 C         142.7449  142.7992  164.7518 C.ar    1  UNL1       -0.0029
@<TRIPOS>BOND
     1     1     2    1
     2     2     4    1
     3     4     5   ar
     4     5     6   ar
     5     6     7   ar
     6     7     8   ar
     7     8     9   ar
     8     2    10    1
     9    10    11   ar
    10    11    12   ar
    11    12    13   ar
    12    13    14   ar
    13    14    15   ar
    14     2    16    1
    15    16    24    1
    16    24    25   ar
    17    25    26   ar
    18    26    27   ar
    19    27    28   ar
    20    28    29   ar
    21    16    17    1
    22    17    18    1
    23    18    19    1
    24    19    20    1
    25    20    21    1
    26    21    22    1
    27     9     4   ar
    28    15    10   ar
    29    29    24   ar
    30    22    17    1
    31     1     3    1
    32    20    23    1
