@<TRIPOS>MOLECULE
*****
 32 35 0 0 0
SMALL
GASTEIGER

@<TRIPOS>ATOM
      1 C         140.9530  139.3912  161.6228 C.3     1  UNL1        0.0622
      2 C         141.7445  140.0888  160.5565 C.3     1  UNL1        0.0164
      3 C         143.2003  139.7753  160.3773 C.3     1  UNL1        0.0028
      4 C         143.8647  138.7645  161.2642 C.3     1  UNL1        0.0174
      5 C         143.0732  138.0669  162.3305 C.3     1  UNL1        0.0723
      6 N         141.6173  138.3803  162.5098 N.3     1  UNL1       -0.2699
      7 C         139.4970  139.7046  161.8021 C.3     1  UNL1        0.0432
      8 C         138.2825  141.2735  159.2111 C.3     1  UNL1        0.0517
      9 C         138.4693  141.8500  160.5832 C.2     1  UNL1        0.0551
     10 N         138.1305  143.2490  161.0052 N.2     1  UNL1       -0.2503
     11 C         138.4794  143.3925  162.4570 C.2     1  UNL1        0.0770
     12 C         138.3639  144.5470  163.4077 C.2     1  UNL1        0.0184
     13 C         138.8028  144.3913  164.8336 C.2     1  UNL1       -0.0027
     14 C         139.3571  143.0810  165.3088 C.2     1  UNL1       -0.0213
     15 C         139.4726  141.9264  164.3581 C.3     1  UNL1        0.0535
     16 C         139.0338  142.0822  162.9322 C.2     1  UNL1       -0.0030
     17 C         139.0275  141.1289  161.7741 C.2     1  UNL1       -0.0095
     18 C         140.8257  137.6829  163.5761 C.3     1  UNL1        0.0991
     19 C         140.5254  138.3848  164.8672 C.ar    1  UNL1       -0.0061
     20 C         139.1150  138.4533  165.3734 C.ar    1  UNL1       -0.0029
     21 C         138.8147  139.1552  166.6645 C.ar    1  UNL1       -0.0003
     22 C         139.9248  139.7886  167.4496 C.ar    1  UNL1        0.0001
     23 C         141.3352  139.7201  166.9436 C.ar    1  UNL1       -0.0003
     24 C         141.6355  139.0182  165.6524 C.ar    1  UNL1       -0.0029
     25 C         139.6245  140.4905  168.7408 C.2     1  UNL1        0.0047
     26 C         140.6207  141.4491  169.3227 C.2     1  UNL1        0.0598
     27 C         140.3204  142.1510  170.6138 C.2     1  UNL1        0.2679
     28 O         141.2943  142.0765  171.7522 O.2     1  UNL1       -0.2681
     29 N         139.0461  142.9275  170.7668 N.am    1  UNL1       -0.1934
     30 O         138.7458  143.6294  172.0579 O.3     1  UNL1       -0.2949
     31 H         138.4069  142.9765  170.0196 H       1  UNL1        0.1825
     32 H         139.4724  143.4812  172.6832 H       1  UNL1        0.2414
@<TRIPOS>BOND
     1     8     9    1
     2     9    10    2
     3    10    11    1
     4    11    12    2
     5    12    13    1
     6    13    14    2
     7    14    15    1
     8    15    16    1
     9    16    17    2
    10    17     7    1
    11     7     1    1
    12     1     2    1
    13     2     3    1
    14     3     4    1
    15     4     5    1
    16     5     6    1
    17     6    18    1
    18    18    19    1
    19    19    20   ar
    20    20    21   ar
    21    21    22   ar
    22    22    25    1
    23    25    26    2
    24    26    27    1
    25    27    28    2
    26    27    29   am
    27    29    30    1
    28    22    23   ar
    29    23    24   ar
    30    17     9    1
    31     6     1    1
    32    24    19   ar
    33    16    11    1
    34    29    31    1
    35    30    32    1
@<TRIPOS>MOLECULE
*****
 32 35 0 0 0
SMALL
GASTEIGER

@<TRIPOS>ATOM
      1 C         143.0802  141.8051  160.8335 C.3     1  UNL1        0.0622
      2 C         142.1797  141.2593  159.7653 C.3     1  UNL1        0.0164
      3 C         142.2160  139.7981  159.4284 C.3     1  UNL1        0.0028
      4 C         143.1527  138.8828  160.1596 C.3     1  UNL1        0.0174
      5 C         144.0532  139.4286  161.2278 C.3     1  UNL1        0.0723
      6 N         144.0170  140.8898  161.5647 N.3     1  UNL1       -0.2699
      7 C         143.0440  143.2664  161.1706 C.3     1  UNL1        0.0432
      8 C         141.4842  145.0651  158.9386 C.3     1  UNL1        0.0517
      9 C         141.0106  144.7866  160.3344 C.2     1  UNL1        0.0551
     10 N         139.7369  145.2860  160.9493 N.2     1  UNL1       -0.2503
     11 C         139.6665  144.7679  162.3552 C.2     1  UNL1        0.0770
     12 C         138.6412  144.9365  163.4370 C.2     1  UNL1        0.0184
     13 C         138.8461  144.2856  164.7727 C.2     1  UNL1       -0.0027
     14 C         140.0765  143.4660  165.0267 C.2     1  UNL1       -0.0213
     15 C         141.1018  143.2973  163.9450 C.3     1  UNL1        0.0535
     16 C         140.8969  143.9483  162.6092 C.2     1  UNL1       -0.0030
     17 C         141.7276  143.9598  161.3603 C.2     1  UNL1       -0.0095
     18 C         144.9175  141.4357  162.6330 C.3     1  UNL1        0.0991
     19 C         144.3827  141.6772  164.0134 C.ar    1  UNL1       -0.0061
     20 C         143.5471  140.6298  164.6880 C.ar    1  UNL1       -0.0029
     21 C         143.0124  140.8713  166.0685 C.ar    1  UNL1       -0.0003
     22 C         143.3132  142.1601  166.7745 C.ar    1  UNL1        0.0001
     23 C         144.1487  143.2074  166.1000 C.ar    1  UNL1       -0.0003
     24 C         144.6835  142.9660  164.7195 C.ar    1  UNL1       -0.0029
     25 C         142.7784  142.4016  168.1549 C.2     1  UNL1        0.0047
     26 C         141.3353  142.7623  168.3477 C.2     1  UNL1        0.0598
     27 C         140.8005  143.0038  169.7282 C.2     1  UNL1        0.2679
     28 O         140.1993  144.3328  170.0778 O.2     1  UNL1       -0.2681
     29 N         140.8669  141.9162  170.7591 N.am    1  UNL1       -0.1934
     30 O         140.3321  142.1576  172.1396 O.3     1  UNL1       -0.2949
     31 H         141.2614  141.0439  170.5297 H       1  UNL1        0.1825
     32 H         139.9818  143.0603  172.1974 H       1  UNL1        0.2414
@<TRIPOS>BOND
     1     8     9    1
     2     9    10    2
     3    10    11    1
     4    11    12    2
     5    12    13    1
     6    13    14    2
     7    14    15    1
     8    15    16    1
     9    16    17    2
    10    17     7    1
    11     7     1    1
    12     1     2    1
    13     2     3    1
    14     3     4    1
    15     4     5    1
    16     5     6    1
    17     6    18    1
    18    18    19    1
    19    19    20   ar
    20    20    21   ar
    21    21    22   ar
    22    22    25    1
    23    25    26    2
    24    26    27    1
    25    27    28    2
    26    27    29   am
    27    29    30    1
    28    22    23   ar
    29    23    24   ar
    30    17     9    1
    31     6     1    1
    32    24    19   ar
    33    16    11    1
    34    29    31    1
    35    30    32    1
@<TRIPOS>MOLECULE
*****
 32 35 0 0 0
SMALL
GASTEIGER

@<TRIPOS>ATOM
      1 C         140.7466  139.0800  161.6749 C.3     1  UNL1        0.0622
      2 C         139.9403  139.7526  160.6037 C.3     1  UNL1        0.0164
      3 C         138.4582  139.5335  160.5317 C.3     1  UNL1        0.0028
      4 C         137.7823  138.6419  161.5308 C.3     1  UNL1        0.0174
      5 C         138.5886  137.9693  162.6020 C.3     1  UNL1        0.0723
      6 N         140.0708  138.1884  162.6740 N.3     1  UNL1       -0.2699
      7 C         142.2289  139.2990  161.7470 C.3     1  UNL1        0.0432
      8 C         143.3011  140.5881  158.9473 C.3     1  UNL1        0.0517
      9 C         143.2855  141.2702  160.2832 C.2     1  UNL1        0.0551
     10 N         143.7601  142.6646  160.5667 N.2     1  UNL1       -0.2503
     11 C         143.5606  142.9339  162.0287 C.2     1  UNL1        0.0770
     12 C         143.8461  144.1386  162.8756 C.2     1  UNL1        0.0184
     13 C         143.5337  144.1153  164.3425 C.2     1  UNL1       -0.0027
     14 C         142.9358  142.8873  164.9626 C.2     1  UNL1       -0.0213
     15 C         142.6503  141.6826  164.1158 C.3     1  UNL1        0.0535
     16 C         142.9627  141.7058  162.6488 C.2     1  UNL1       -0.0030
     17 C         142.7927  140.6776  161.5700 C.2     1  UNL1       -0.0095
     18 C         140.8772  137.5158  163.7452 C.3     1  UNL1        0.0991
     19 C         141.3210  138.2928  164.9491 C.ar    1  UNL1       -0.0061
     20 C         140.3406  139.1531  165.6899 C.ar    1  UNL1       -0.0029
     21 C         140.7844  139.9300  166.8938 C.ar    1  UNL1       -0.0003
     22 C         142.2087  139.8467  167.3569 C.ar    1  UNL1        0.0001
     23 C         143.1891  138.9865  166.6162 C.ar    1  UNL1       -0.0003
     24 C         142.7453  138.2095  165.4123 C.ar    1  UNL1       -0.0029
     25 C         142.6525  140.6237  168.5608 C.2     1  UNL1        0.0047
     26 C         141.7135  141.5926  169.2161 C.2     1  UNL1        0.0598
     27 C         142.1573  142.3695  170.4200 C.2     1  UNL1        0.2679
     28 O         141.5356  142.0993  171.7581 O.2     1  UNL1       -0.2681
     29 N         143.2228  143.4168  170.2859 N.am    1  UNL1       -0.1934
     30 O         143.6666  144.1938  171.4898 O.3     1  UNL1       -0.2949
     31 H         143.6309  143.5942  169.4077 H       1  UNL1        0.1825
     32 H         143.1684  143.8975  172.2675 H       1  UNL1        0.2414
@<TRIPOS>BOND
     1     8     9    1
     2     9    10    2
     3    10    11    1
     4    11    12    2
     5    12    13    1
     6    13    14    2
     7    14    15    1
     8    15    16    1
     9    16    17    2
    10    17     7    1
    11     7     1    1
    12     1     2    1
    13     2     3    1
    14     3     4    1
    15     4     5    1
    16     5     6    1
    17     6    18    1
    18    18    19    1
    19    19    20   ar
    20    20    21   ar
    21    21    22   ar
    22    22    25    1
    23    25    26    2
    24    26    27    1
    25    27    28    2
    26    27    29   am
    27    29    30    1
    28    22    23   ar
    29    23    24   ar
    30    17     9    1
    31     6     1    1
    32    24    19   ar
    33    16    11    1
    34    29    31    1
    35    30    32    1
@<TRIPOS>MOLECULE
*****
 32 35 0 0 0
SMALL
GASTEIGER

@<TRIPOS>ATOM
      1 C         143.8179  139.9639  161.0628 C.3     1  UNL1        0.0622
      2 C         143.7092  140.8785  159.8789 C.3     1  UNL1        0.0164
      3 C         144.3073  142.2529  159.9356 C.3     1  UNL1        0.0028
      4 C         145.0141  142.7127  161.1762 C.3     1  UNL1        0.0174
      5 C         145.1227  141.7981  162.3602 C.3     1  UNL1        0.0723
      6 N         144.5246  140.4237  162.3034 N.3     1  UNL1       -0.2699
      7 C         143.2197  138.5894  161.0061 C.3     1  UNL1        0.0432
      8 C         141.1260  138.8733  158.5191 C.3     1  UNL1        0.0517
      9 C         140.7695  138.5458  159.9388 C.2     1  UNL1        0.0551
     10 N         139.3879  138.2913  160.4646 N.2     1  UNL1       -0.2503
     11 C         139.4964  138.0035  161.9327 C.2     1  UNL1        0.0770
     12 C         138.4633  137.6815  162.9715 C.2     1  UNL1        0.0184
     13 C         138.8788  137.4362  164.3918 C.2     1  UNL1       -0.0027
     14 C         140.3275  137.5128  164.7733 C.2     1  UNL1       -0.0213
     15 C         141.3606  137.8348  163.7345 C.3     1  UNL1        0.0535
     16 C         140.9451  138.0801  162.3143 C.2     1  UNL1       -0.0030
     17 C         141.7319  138.4153  161.0819 C.2     1  UNL1       -0.0095
     18 C         144.6332  139.5090  163.4873 C.3     1  UNL1        0.0991
     19 C         143.7524  139.7218  164.6827 C.ar    1  UNL1       -0.0061
     20 C         142.7663  140.8521  164.6962 C.ar    1  UNL1       -0.0029
     21 C         141.8855  141.0649  165.8915 C.ar    1  UNL1       -0.0003
     22 C         141.9908  140.1474  167.0735 C.ar    1  UNL1        0.0001
     23 C         142.9768  139.0171  167.0601 C.ar    1  UNL1       -0.0003
     24 C         143.8576  138.8043  165.8647 C.ar    1  UNL1       -0.0029
     25 C         141.1100  140.3602  168.2689 C.2     1  UNL1        0.0047
     26 C         140.8767  141.7468  168.7912 C.2     1  UNL1        0.0598
     27 C         139.9959  141.9596  169.9865 C.2     1  UNL1        0.2679
     28 O         139.3910  140.7819  170.6917 O.2     1  UNL1       -0.2681
     29 N         139.7199  143.3501  170.4769 N.am    1  UNL1       -0.1934
     30 O         138.8391  143.5629  171.6723 O.3     1  UNL1       -0.2949
     31 H         140.1168  144.1231  170.0141 H       1  UNL1        0.1825
     32 H         138.5335  142.7048  172.0056 H       1  UNL1        0.2414
@<TRIPOS>BOND
     1     8     9    1
     2     9    10    2
     3    10    11    1
     4    11    12    2
     5    12    13    1
     6    13    14    2
     7    14    15    1
     8    15    16    1
     9    16    17    2
    10    17     7    1
    11     7     1    1
    12     1     2    1
    13     2     3    1
    14     3     4    1
    15     4     5    1
    16     5     6    1
    17     6    18    1
    18    18    19    1
    19    19    20   ar
    20    20    21   ar
    21    21    22   ar
    22    22    25    1
    23    25    26    2
    24    26    27    1
    25    27    28    2
    26    27    29   am
    27    29    30    1
    28    22    23   ar
    29    23    24   ar
    30    17     9    1
    31     6     1    1
    32    24    19   ar
    33    16    11    1
    34    29    31    1
    35    30    32    1
@<TRIPOS>MOLECULE
*****
 32 35 0 0 0
SMALL
GASTEIGER

@<TRIPOS>ATOM
      1 C         142.1582  140.9430  168.3651 C.3     1  UNL1        0.0622
      2 C         143.0914  141.9507  168.9683 C.3     1  UNL1        0.0164
      3 C         142.5650  142.9872  169.9161 C.3     1  UNL1        0.0028
      4 C         141.1055  143.0162  170.2608 C.3     1  UNL1        0.0174
      5 C         140.1722  142.0085  169.6577 C.3     1  UNL1        0.0723
      6 N         140.6987  140.9720  168.7098 N.3     1  UNL1       -0.2699
      7 C         142.6846  139.9064  167.4172 C.3     1  UNL1        0.0432
      8 C         143.6643  142.6191  165.8904 C.3     1  UNL1        0.0517
      9 C         143.0896  141.3977  165.2362 C.2     1  UNL1        0.0551
     10 N         142.8645  141.2087  163.7653 N.2     1  UNL1       -0.2503
     11 C         142.2750  139.8452  163.5580 C.2     1  UNL1        0.0770
     12 C         141.8470  139.1142  162.3200 C.2     1  UNL1        0.0184
     13 C         141.2798  137.7296  162.4248 C.2     1  UNL1       -0.0027
     14 C         141.1407  137.0757  163.7676 C.2     1  UNL1       -0.0213
     15 C         141.5687  137.8066  165.0056 C.3     1  UNL1        0.0535
     16 C         142.1359  139.1913  164.9009 C.2     1  UNL1       -0.0030
     17 C         142.6394  140.1508  165.9380 C.2     1  UNL1       -0.0095
     18 C         139.7655  139.9643  168.1067 C.3     1  UNL1        0.0991
     19 C         139.2802  140.1404  166.6983 C.ar    1  UNL1       -0.0061
     20 C         138.5989  139.0057  165.9923 C.ar    1  UNL1       -0.0029
     21 C         138.1136  139.1818  164.5839 C.ar    1  UNL1       -0.0003
     22 C         138.3096  140.4926  163.8815 C.ar    1  UNL1        0.0001
     23 C         138.9909  141.6273  164.5875 C.ar    1  UNL1       -0.0003
     24 C         139.4761  141.4512  165.9959 C.ar    1  UNL1       -0.0029
     25 C         137.8243  140.6687  162.4732 C.2     1  UNL1        0.0047
     26 C         138.7543  141.1931  161.4195 C.2     1  UNL1        0.0598
     27 C         138.2690  141.3692  160.0112 C.2     1  UNL1        0.2679
     28 O         138.2792  142.7294  159.3789 O.2     1  UNL1       -0.2681
     29 N         137.7734  140.1851  159.2350 N.am    1  UNL1       -0.1934
     30 O         137.2881  140.3612  157.8266 O.3     1  UNL1       -0.2949
     31 H         137.7666  139.2923  159.6499 H       1  UNL1        0.1825
     32 H         137.3615  141.2947  157.5737 H       1  UNL1        0.2414
@<TRIPOS>BOND
     1     8     9    1
     2     9    10    2
     3    10    11    1
     4    11    12    2
     5    12    13    1
     6    13    14    2
     7    14    15    1
     8    15    16    1
     9    16    17    2
    10    17     7    1
    11     7     1    1
    12     1     2    1
    13     2     3    1
    14     3     4    1
    15     4     5    1
    16     5     6    1
    17     6    18    1
    18    18    19    1
    19    19    20   ar
    20    20    21   ar
    21    21    22   ar
    22    22    25    1
    23    25    26    2
    24    26    27    1
    25    27    28    2
    26    27    29   am
    27    29    30    1
    28    22    23   ar
    29    23    24   ar
    30    17     9    1
    31     6     1    1
    32    24    19   ar
    33    16    11    1
    34    29    31    1
    35    30    32    1
@<TRIPOS>MOLECULE
*****
 32 35 0 0 0
SMALL
GASTEIGER

@<TRIPOS>ATOM
      1 C         140.5785  141.0792  168.7045 C.3     1  UNL1        0.0622
      2 C         140.1525  142.3340  169.4074 C.3     1  UNL1        0.0164
      3 C         141.1837  143.2537  169.9909 C.3     1  UNL1        0.0028
      4 C         142.6410  142.9188  169.8715 C.3     1  UNL1        0.0174
      5 C         143.0670  141.6640  169.1686 C.3     1  UNL1        0.0723
      6 N         142.0358  140.7443  168.5851 N.3     1  UNL1       -0.2699
      7 C         139.5472  140.1593  168.1209 C.3     1  UNL1        0.0432
      8 C         137.9066  137.8832  166.4543 C.3     1  UNL1        0.0517
      9 C         138.5352  139.1170  165.8772 C.2     1  UNL1        0.0551
     10 N         138.5199  139.5210  164.4328 N.2     1  UNL1       -0.2503
     11 C         139.2646  140.8169  164.3061 C.2     1  UNL1        0.0770
     12 C         139.5712  141.6869  163.1232 C.2     1  UNL1        0.0184
     13 C         140.3532  142.9537  163.3065 C.2     1  UNL1       -0.0027
     14 C         140.8287  143.3505  164.6727 C.2     1  UNL1       -0.0213
     15 C         140.5221  142.4806  165.8556 C.3     1  UNL1        0.0535
     16 C         139.7401  141.2137  165.6723 C.2     1  UNL1       -0.0030
     17 C         139.2892  140.1631  166.6433 C.2     1  UNL1       -0.0095
     18 C         142.4617  139.4895  167.8821 C.3     1  UNL1        0.0991
     19 C         142.7333  139.5115  166.4071 C.ar    1  UNL1       -0.0061
     20 C         142.2703  138.3767  165.5421 C.ar    1  UNL1       -0.0029
     21 C         142.5419  138.3987  164.0671 C.ar    1  UNL1       -0.0003
     22 C         143.2764  139.5556  163.4569 C.ar    1  UNL1        0.0001
     23 C         143.7393  140.6903  164.3218 C.ar    1  UNL1       -0.0003
     24 C         143.4677  140.6683  165.7969 C.ar    1  UNL1       -0.0029
     25 C         143.5479  139.5776  161.9819 C.2     1  UNL1        0.0047
     26 C         142.9384  138.5357  161.0915 C.2     1  UNL1        0.0598
     27 C         143.2100  138.5578  159.6164 C.2     1  UNL1        0.2679
     28 O         142.7058  137.4463  158.7443 O.2     1  UNL1       -0.2681
     29 N         143.9856  139.6913  159.0134 N.am    1  UNL1       -0.1934
     30 O         144.2572  139.7133  157.5383 O.3     1  UNL1       -0.2949
     31 H         144.3165  140.4207  159.5857 H       1  UNL1        0.1825
     32 H         143.8652  138.9278  157.1256 H       1  UNL1        0.2414
@<TRIPOS>BOND
     1     8     9    1
     2     9    10    2
     3    10    11    1
     4    11    12    2
     5    12    13    1
     6    13    14    2
     7    14    15    1
     8    15    16    1
     9    16    17    2
    10    17     7    1
    11     7     1    1
    12     1     2    1
    13     2     3    1
    14     3     4    1
    15     4     5    1
    16     5     6    1
    17     6    18    1
    18    18    19    1
    19    19    20   ar
    20    20    21   ar
    21    21    22   ar
    22    22    25    1
    23    25    26    2
    24    26    27    1
    25    27    28    2
    26    27    29   am
    27    29    30    1
    28    22    23   ar
    29    23    24   ar
    30    17     9    1
    31     6     1    1
    32    24    19   ar
    33    16    11    1
    34    29    31    1
    35    30    32    1
@<TRIPOS>MOLECULE
*****
 32 35 0 0 0
SMALL
GASTEIGER

@<TRIPOS>ATOM
      1 C         142.2234  141.1300  168.2426 C.3     1  UNL1        0.0622
      2 C         143.1863  141.5931  169.2954 C.3     1  UNL1        0.0164
      3 C         142.8185  142.7323  170.1991 C.3     1  UNL1        0.0028
      4 C         141.4879  143.4086  170.0500 C.3     1  UNL1        0.0174
      5 C         140.5250  142.9455  168.9972 C.3     1  UNL1        0.0723
      6 N         140.8928  141.8063  168.0935 N.3     1  UNL1       -0.2699
      7 C         142.5911  139.9906  167.3388 C.3     1  UNL1        0.0432
      8 C         141.9694  137.8663  164.9407 C.3     1  UNL1        0.0517
      9 C         142.5085  139.2557  164.7702 C.2     1  UNL1        0.0551
     10 N         142.8564  139.9125  163.4673 N.2     1  UNL1       -0.2503
     11 C         143.3572  141.2948  163.7642 C.2     1  UNL1        0.0770
     12 C         143.8433  142.3994  162.8733 C.2     1  UNL1        0.0184
     13 C         144.2909  143.7013  163.4687 C.2     1  UNL1       -0.0027
     14 C         144.2525  143.8988  164.9551 C.2     1  UNL1       -0.0213
     15 C         143.7664  142.7944  165.8461 C.3     1  UNL1        0.0535
     16 C         143.3188  141.4924  165.2508 C.2     1  UNL1       -0.0030
     17 C         142.7942  140.2321  165.8724 C.2     1  UNL1       -0.0095
     18 C         139.9300  141.3431  167.0406 C.3     1  UNL1        0.0991
     19 C         139.9297  141.9907  165.6876 C.ar    1  UNL1       -0.0061
     20 C         139.5847  141.1849  164.4703 C.ar    1  UNL1       -0.0029
     21 C         139.5845  141.8325  163.1173 C.ar    1  UNL1       -0.0003
     22 C         139.9292  143.2861  162.9816 C.ar    1  UNL1        0.0001
     23 C         140.2742  144.0919  164.1987 C.ar    1  UNL1       -0.0003
     24 C         140.2745  143.4443  165.5517 C.ar    1  UNL1       -0.0029
     25 C         139.9289  143.9337  161.6286 C.2     1  UNL1        0.0047
     26 C         141.2275  144.2850  160.9650 C.2     1  UNL1        0.0598
     27 C         141.2272  144.9326  159.6120 C.2     1  UNL1        0.2679
     28 O         142.4658  144.9037  158.7665 O.2     1  UNL1       -0.2681
     29 N         139.9883  145.6091  159.1045 N.am    1  UNL1       -0.1934
     30 O         139.9880  146.2567  157.7515 O.3     1  UNL1       -0.2949
     31 H         139.1753  145.6280  159.6594 H       1  UNL1        0.1825
     32 H         140.8601  146.1480  157.3408 H       1  UNL1        0.2414
@<TRIPOS>BOND
     1     8     9    1
     2     9    10    2
     3    10    11    1
     4    11    12    2
     5    12    13    1
     6    13    14    2
     7    14    15    1
     8    15    16    1
     9    16    17    2
    10    17     7    1
    11     7     1    1
    12     1     2    1
    13     2     3    1
    14     3     4    1
    15     4     5    1
    16     5     6    1
    17     6    18    1
    18    18    19    1
    19    19    20   ar
    20    20    21   ar
    21    21    22   ar
    22    22    25    1
    23    25    26    2
    24    26    27    1
    25    27    28    2
    26    27    29   am
    27    29    30    1
    28    22    23   ar
    29    23    24   ar
    30    17     9    1
    31     6     1    1
    32    24    19   ar
    33    16    11    1
    34    29    31    1
    35    30    32    1
@<TRIPOS>MOLECULE
*****
 32 35 0 0 0
SMALL
GASTEIGER

@<TRIPOS>ATOM
      1 C         141.8107  142.8817  161.0692 C.3     1  UNL1        0.0622
      2 C         141.0838  142.7174  159.7674 C.3     1  UNL1        0.0164
      3 C         140.2603  143.8457  159.2208 C.3     1  UNL1        0.0028
      4 C         140.1638  145.1382  159.9759 C.3     1  UNL1        0.0174
      5 C         140.8908  145.3025  161.2776 C.3     1  UNL1        0.0723
      6 N         141.7142  144.1742  161.8242 N.3     1  UNL1       -0.2699
      7 C         142.6342  141.7533  161.6159 C.3     1  UNL1        0.0432
      8 C         143.6349  139.2671  159.7538 C.3     1  UNL1        0.0517
      9 C         142.5394  139.2171  160.7773 C.2     1  UNL1        0.0551
     10 N         141.7115  138.0154  161.1245 N.2     1  UNL1       -0.2503
     11 C         140.7400  138.4154  162.1949 C.2     1  UNL1        0.0770
     12 C         139.6775  137.6476  162.9241 C.2     1  UNL1        0.0184
     13 C         138.8425  138.3286  163.9676 C.2     1  UNL1       -0.0027
     14 C         139.0699  139.7776  164.2820 C.2     1  UNL1       -0.0213
     15 C         140.1323  140.5455  163.5528 C.3     1  UNL1        0.0535
     16 C         140.9674  139.8644  162.5093 C.2     1  UNL1       -0.0030
     17 C         142.0795  140.3599  161.6331 C.2     1  UNL1       -0.0095
     18 C         142.4412  144.3383  163.1260 C.3     1  UNL1        0.0991
     19 C         141.9414  143.6421  164.3570 C.ar    1  UNL1       -0.0061
     20 C         142.8364  142.6931  165.0977 C.ar    1  UNL1       -0.0029
     21 C         142.3367  141.9969  166.3287 C.ar    1  UNL1       -0.0003
     22 C         140.9418  142.2496  166.8192 C.ar    1  UNL1        0.0001
     23 C         140.0468  143.1985  166.0786 C.ar    1  UNL1       -0.0003
     24 C         140.5466  143.8948  164.8476 C.ar    1  UNL1       -0.0029
     25 C         140.4420  141.5534  168.0502 C.2     1  UNL1        0.0047
     26 C         141.0457  141.8677  169.3869 C.2     1  UNL1        0.0598
     27 C         140.5459  141.1715  170.6179 C.2     1  UNL1        0.2679
     28 O         140.4958  141.9042  171.9259 O.2     1  UNL1       -0.2681
     29 N         140.0962  139.7425  170.5412 N.am    1  UNL1       -0.1934
     30 O         139.5964  139.0463  171.7722 O.3     1  UNL1       -0.2949
     31 H         140.1291  139.2616  169.6828 H       1  UNL1        0.1825
     32 H         139.6293  139.6571  172.5250 H       1  UNL1        0.2414
@<TRIPOS>BOND
     1     8     9    1
     2     9    10    2
     3    10    11    1
     4    11    12    2
     5    12    13    1
     6    13    14    2
     7    14    15    1
     8    15    16    1
     9    16    17    2
    10    17     7    1
    11     7     1    1
    12     1     2    1
    13     2     3    1
    14     3     4    1
    15     4     5    1
    16     5     6    1
    17     6    18    1
    18    18    19    1
    19    19    20   ar
    20    20    21   ar
    21    21    22   ar
    22    22    25    1
    23    25    26    2
    24    26    27    1
    25    27    28    2
    26    27    29   am
    27    29    30    1
    28    22    23   ar
    29    23    24   ar
    30    17     9    1
    31     6     1    1
    32    24    19   ar
    33    16    11    1
    34    29    31    1
    35    30    32    1
@<TRIPOS>MOLECULE
*****
 32 35 0 0 0
SMALL
GASTEIGER

@<TRIPOS>ATOM
      1 C         138.8760  143.2334  161.4434 C.3     1  UNL1        0.0622
      2 C         139.2443  143.1187  159.9938 C.3     1  UNL1        0.0164
      3 C         140.3062  144.0074  159.4173 C.3     1  UNL1        0.0028
      4 C         140.9999  145.0108  160.2902 C.3     1  UNL1        0.0174
      5 C         140.6316  145.1255  161.7398 C.3     1  UNL1        0.0723
      6 N         139.5696  144.2368  162.3163 N.3     1  UNL1       -0.2699
      7 C         137.8139  142.3447  162.0200 C.3     1  UNL1        0.0432
      8 C         138.0023  140.1503  159.6119 C.3     1  UNL1        0.0517
      9 C         138.1589  139.8676  161.0767 C.2     1  UNL1        0.0551
     10 N         138.4296  138.5266  161.6918 N.2     1  UNL1       -0.2503
     11 C         138.5103  138.7063  163.1787 C.2     1  UNL1        0.0770
     12 C         138.7563  137.7354  164.2953 C.2     1  UNL1        0.0184
     13 C         138.7816  138.2166  165.7158 C.2     1  UNL1       -0.0027
     14 C         138.5607  139.6688  166.0197 C.2     1  UNL1       -0.0213
     15 C         138.3147  140.6398  164.9032 C.3     1  UNL1        0.0535
     16 C         138.2895  140.1586  163.4827 C.2     1  UNL1       -0.0030
     17 C         138.0723  140.8763  162.1835 C.2     1  UNL1       -0.0095
     18 C         139.2012  144.3515  163.7659 C.3     1  UNL1        0.0991
     19 C         139.9697  143.5809  164.7982 C.ar    1  UNL1       -0.0061
     20 C         139.6057  143.7005  166.2485 C.ar    1  UNL1       -0.0029
     21 C         140.3741  142.9299  167.2807 C.ar    1  UNL1       -0.0003
     22 C         141.5067  142.0396  166.8627 C.ar    1  UNL1        0.0001
     23 C         141.8707  141.9200  165.4125 C.ar    1  UNL1       -0.0003
     24 C         141.1023  142.6906  164.3803 C.ar    1  UNL1       -0.0029
     25 C         142.2752  141.2690  167.8950 C.2     1  UNL1        0.0047
     26 C         141.5453  140.5396  168.9836 C.2     1  UNL1        0.0598
     27 C         142.3138  139.7690  170.0159 C.2     1  UNL1        0.2679
     28 O         142.5292  140.3524  171.3809 O.2     1  UNL1       -0.2681
     29 N         142.8669  138.4149  169.6833 N.am    1  UNL1       -0.1934
     30 O         143.6354  137.6443  170.7156 O.3     1  UNL1       -0.2949
     31 H         142.7255  138.0320  168.7874 H       1  UNL1        0.1825
     32 H         143.6821  138.1602  171.5357 H       1  UNL1        0.2414
@<TRIPOS>BOND
     1     8     9    1
     2     9    10    2
     3    10    11    1
     4    11    12    2
     5    12    13    1
     6    13    14    2
     7    14    15    1
     8    15    16    1
     9    16    17    2
    10    17     7    1
    11     7     1    1
    12     1     2    1
    13     2     3    1
    14     3     4    1
    15     4     5    1
    16     5     6    1
    17     6    18    1
    18    18    19    1
    19    19    20   ar
    20    20    21   ar
    21    21    22   ar
    22    22    25    1
    23    25    26    2
    24    26    27    1
    25    27    28    2
    26    27    29   am
    27    29    30    1
    28    22    23   ar
    29    23    24   ar
    30    17     9    1
    31     6     1    1
    32    24    19   ar
    33    16    11    1
    34    29    31    1
    35    30    32    1
