@<TRIPOS>MOLECULE
*****
 21 22 0 0 0
SMALL
GASTEIGER

@<TRIPOS>ATOM
      1 C         141.0958  141.9039  165.5995 C.2     1  UNL1        0.1855
      2 O         142.0921  141.3152  164.6451 O.2     1  UNL1       -0.2900
      3 C         141.4808  142.1501  167.0283 C.ar    1  UNL1        0.0369
      4 C         142.9272  142.1516  167.4257 C.ar    1  UNL1        0.0042
      5 C         143.3121  142.3978  168.8544 C.ar    1  UNL1        0.0150
      6 C         142.2507  142.6425  169.8856 C.ar    1  UNL1        0.0522
      7 N         142.6357  142.8887  171.3144 N.pl3   1  UNL1       -0.3563
      8 C         140.8043  142.6410  169.4882 C.ar    1  UNL1        0.0706
      9 CL        139.7429  142.8857  170.5195 Cl      1  UNL1       -0.0810
     10 C         140.4194  142.3948  168.0595 C.ar    1  UNL1        0.0155
     11 H         143.5850  142.8897  171.5752 H       1  UNL1        0.1424
     12 H         141.9391  143.0493  171.9913 H       1  UNL1        0.1424
     13 C         139.7146  142.2464  165.1253 C.3     1  UNL1        0.0981
     14 C         138.2982  142.2779  164.6327 C.3     1  UNL1        0.0233
     15 C         137.8801  143.7137  164.5150 C.3     1  UNL1        0.0189
     16 C         139.0382  144.5695  164.9349 C.3     1  UNL1        0.0689
     17 N         140.1720  143.6627  165.3121 N.3     1  UNL1       -0.2938
     18 H         140.4296  143.8176  166.2868 H       1  UNL1        0.1235
     19 C         139.5461  140.7585  165.0377 C.3     1  UNL1        0.0219
     20 C         138.2525  139.0688  166.5282 C.3     1  UNL1        0.0001
     21 C         138.2549  140.1238  165.4619 C.3     1  UNL1        0.0018
@<TRIPOS>BOND
     1    20    21    1
     2    21    19    1
     3    19    13    1
     4    13     1    1
     5     1     2    2
     6     1     3    1
     7     3     4   ar
     8     4     5   ar
     9     5     6   ar
    10     6     7    1
    11     6     8   ar
    12     8     9    1
    13     8    10   ar
    14    13    14    1
    15    14    15    1
    16    15    16    1
    17    16    17    1
    18    17    13    1
    19    10     3   ar
    20     7    11    1
    21     7    12    1
    22    17    18    1
@<TRIPOS>MOLECULE
*****
 21 22 0 0 0
SMALL
GASTEIGER

@<TRIPOS>ATOM
      1 C         141.2025  142.2179  165.5734 C.2     1  UNL1        0.1855
      2 O         142.1510  142.6413  164.4913 O.2     1  UNL1       -0.2900
      3 C         141.5780  142.4015  167.0140 C.ar    1  UNL1        0.0369
      4 C         142.9833  142.1310  167.4631 C.ar    1  UNL1        0.0042
      5 C         143.3588  142.3147  168.9037 C.ar    1  UNL1        0.0150
      6 C         142.3289  142.7688  169.8951 C.ar    1  UNL1        0.0522
      7 N         142.7044  142.9525  171.3358 N.pl3   1  UNL1       -0.3563
      8 C         140.9235  143.0393  169.4460 C.ar    1  UNL1        0.0706
      9 CL        139.8936  143.4935  170.4375 Cl      1  UNL1       -0.0810
     10 C         140.5480  142.8557  168.0055 C.ar    1  UNL1        0.0155
     11 H         143.6268  142.7749  171.6305 H       1  UNL1        0.1424
     12 H         142.0284  143.2505  171.9865 H       1  UNL1        0.1424
     13 C         139.8785  141.6109  165.2149 C.3     1  UNL1        0.0981
     14 C         138.5043  141.2786  164.7138 C.3     1  UNL1        0.0233
     15 C         138.1717  139.8861  165.1615 C.3     1  UNL1        0.0189
     16 C         139.3404  139.3578  165.9394 C.3     1  UNL1        0.0689
     17 N         140.3952  140.4238  165.9724 N.3     1  UNL1       -0.2938
     18 H         141.2496  140.0791  165.5346 H       1  UNL1        0.1235
     19 C         139.6385  142.9249  164.5324 C.3     1  UNL1        0.0219
     20 C         138.5144  145.0034  165.6125 C.3     1  UNL1        0.0001
     21 C         138.4050  143.7186  164.8460 C.3     1  UNL1        0.0018
@<TRIPOS>BOND
     1    20    21    1
     2    21    19    1
     3    19    13    1
     4    13     1    1
     5     1     2    2
     6     1     3    1
     7     3     4   ar
     8     4     5   ar
     9     5     6   ar
    10     6     7    1
    11     6     8   ar
    12     8     9    1
    13     8    10   ar
    14    13    14    1
    15    14    15    1
    16    15    16    1
    17    16    17    1
    18    17    13    1
    19    10     3   ar
    20     7    11    1
    21     7    12    1
    22    17    18    1
@<TRIPOS>MOLECULE
*****
 21 22 0 0 0
SMALL
GASTEIGER

@<TRIPOS>ATOM
      1 C         139.1806  139.6547  165.9537 C.2     1  UNL1        0.1855
      2 O         138.2470  138.4968  166.1475 O.2     1  UNL1       -0.2900
      3 C         138.7575  140.8280  165.1204 C.ar    1  UNL1        0.0369
      4 C         137.8985  140.6167  163.9090 C.ar    1  UNL1        0.0042
      5 C         137.4754  141.7900  163.0758 C.ar    1  UNL1        0.0150
      6 C         137.9113  143.1746  163.4539 C.ar    1  UNL1        0.0522
      7 N         137.4881  144.3479  162.6206 N.pl3   1  UNL1       -0.3563
      8 C         138.7703  143.3859  164.6652 C.ar    1  UNL1        0.0706
      9 CL        139.2062  144.7705  165.0434 Cl      1  UNL1       -0.0810
     10 C         139.1934  142.2126  165.4985 C.ar    1  UNL1        0.0155
     11 H         136.9243  144.2092  161.8255 H       1  UNL1        0.1424
     12 H         137.7742  145.2567  162.8687 H       1  UNL1        0.1424
     13 C         140.5374  139.6394  166.5932 C.3     1  UNL1        0.0981
     14 C         141.9936  139.5566  166.9431 C.3     1  UNL1        0.0233
     15 C         142.1340  139.8312  168.4111 C.3     1  UNL1        0.0189
     16 C         140.7644  140.0836  168.9684 C.3     1  UNL1        0.0689
     17 N         139.7777  139.9651  167.8449 N.3     1  UNL1       -0.2938
     18 H         139.2791  140.8472  167.7276 H       1  UNL1        0.1235
     19 C         141.0134  139.3169  165.2078 C.3     1  UNL1        0.0219
     20 C         141.0823  137.1061  163.8448 C.3     1  UNL1        0.0001
     21 C         141.6436  137.9860  164.9222 C.3     1  UNL1        0.0018
@<TRIPOS>BOND
     1    20    21    1
     2    21    19    1
     3    19    13    1
     4    13     1    1
     5     1     2    2
     6     1     3    1
     7     3     4   ar
     8     4     5   ar
     9     5     6   ar
    10     6     7    1
    11     6     8   ar
    12     8     9    1
    13     8    10   ar
    14    13    14    1
    15    14    15    1
    16    15    16    1
    17    16    17    1
    18    17    13    1
    19    10     3   ar
    20     7    11    1
    21     7    12    1
    22    17    18    1
@<TRIPOS>MOLECULE
*****
 21 22 0 0 0
SMALL
GASTEIGER

@<TRIPOS>ATOM
      1 C         140.2777  141.0602  166.0284 C.2     1  UNL1        0.1855
      2 O         139.9341  142.1499  165.0566 O.2     1  UNL1       -0.2900
      3 C         140.2873  141.3443  167.5012 C.ar    1  UNL1        0.0369
      4 C         140.2056  140.2137  168.4837 C.ar    1  UNL1        0.0042
      5 C         140.2152  140.4978  169.9564 C.ar    1  UNL1        0.0150
      6 C         140.3066  141.9125  170.4468 C.ar    1  UNL1        0.0522
      7 N         140.3162  142.1966  171.9197 N.pl3   1  UNL1       -0.3563
      8 C         140.3883  143.0430  169.4644 C.ar    1  UNL1        0.0706
      9 CL        140.4797  144.4576  169.9548 Cl      1  UNL1       -0.0810
     10 C         140.3787  142.7589  167.9916 C.ar    1  UNL1        0.0155
     11 H         140.2625  141.4545  172.5645 H       1  UNL1        0.1424
     12 H         140.3761  143.1250  172.2416 H       1  UNL1        0.1424
     13 C         140.6117  139.6864  165.5273 C.3     1  UNL1        0.0981
     14 C         140.6357  138.2873  164.9870 C.3     1  UNL1        0.0233
     15 C         142.0640  137.8307  164.9457 C.3     1  UNL1        0.0189
     16 C         142.9227  138.9476  165.4606 C.3     1  UNL1        0.0689
     17 N         142.0251  140.0945  165.8200 N.3     1  UNL1       -0.2938
     18 H         142.2710  140.9138  165.2644 H       1  UNL1        0.1235
     19 C         139.1285  139.5655  165.3394 C.3     1  UNL1        0.0219
     20 C         137.5602  138.3578  167.0223 C.3     1  UNL1        0.0001
     21 C         138.4141  138.3257  165.7894 C.3     1  UNL1        0.0018
@<TRIPOS>BOND
     1    20    21    1
     2    21    19    1
     3    19    13    1
     4    13     1    1
     5     1     2    2
     6     1     3    1
     7     3     4   ar
     8     4     5   ar
     9     5     6   ar
    10     6     7    1
    11     6     8   ar
    12     8     9    1
    13     8    10   ar
    14    13    14    1
    15    14    15    1
    16    15    16    1
    17    16    17    1
    18    17    13    1
    19    10     3   ar
    20     7    11    1
    21     7    12    1
    22    17    18    1
@<TRIPOS>MOLECULE
*****
 21 22 0 0 0
SMALL
GASTEIGER

@<TRIPOS>ATOM
      1 C         138.4078  139.2205  166.2152 C.2     1  UNL1        0.1855
      2 O         137.2803  138.5314  166.9251 O.2     1  UNL1       -0.2900
      3 C         139.5620  139.7719  166.9988 C.ar    1  UNL1        0.0369
      4 C         140.8488  140.1059  166.3042 C.ar    1  UNL1        0.0042
      5 C         142.0028  140.6573  167.0878 C.ar    1  UNL1        0.0150
      6 C         141.8701  140.8747  168.5660 C.ar    1  UNL1        0.0522
      7 N         143.0242  141.4262  169.3496 N.pl3   1  UNL1       -0.3563
      8 C         140.5833  140.5408  169.2606 C.ar    1  UNL1        0.0706
      9 CL        140.4505  140.7583  170.7388 Cl      1  UNL1       -0.0810
     10 C         139.4292  139.9894  168.4770 C.ar    1  UNL1        0.0155
     11 H         143.8688  141.6454  168.8937 H       1  UNL1        0.1424
     12 H         142.9371  141.5689  170.3198 H       1  UNL1        0.1424
     13 C         138.3812  139.3581  164.7218 C.3     1  UNL1        0.0981
     14 C         138.4582  139.1999  163.2322 C.3     1  UNL1        0.0233
     15 C         138.0157  140.4889  162.6056 C.3     1  UNL1        0.0189
     16 C         137.6653  141.4439  163.7080 C.3     1  UNL1        0.0689
     17 N         137.8912  140.7450  165.0159 N.3     1  UNL1       -0.2938
     18 H         137.0171  140.6995  165.5395 H       1  UNL1        0.1235
     19 C         138.8768  137.9425  164.7400 C.3     1  UNL1        0.0219
     20 C         141.2709  137.0133  164.3460 C.3     1  UNL1        0.0001
     21 C         139.9672  137.5175  163.8017 C.3     1  UNL1        0.0018
@<TRIPOS>BOND
     1    20    21    1
     2    21    19    1
     3    19    13    1
     4    13     1    1
     5     1     2    2
     6     1     3    1
     7     3     4   ar
     8     4     5   ar
     9     5     6   ar
    10     6     7    1
    11     6     8   ar
    12     8     9    1
    13     8    10   ar
    14    13    14    1
    15    14    15    1
    16    15    16    1
    17    16    17    1
    18    17    13    1
    19    10     3   ar
    20     7    11    1
    21     7    12    1
    22    17    18    1
@<TRIPOS>MOLECULE
*****
 21 22 0 0 0
SMALL
GASTEIGER

@<TRIPOS>ATOM
      1 C         140.8572  140.8848  166.0500 C.2     1  UNL1        0.1855
      2 O         141.3629  141.9216  165.0911 O.2     1  UNL1       -0.2900
      3 C         140.7516  141.2033  167.5120 C.ar    1  UNL1        0.0369
      4 C         140.8130  140.1000  168.5263 C.ar    1  UNL1        0.0042
      5 C         140.7074  140.4185  169.9882 C.ar    1  UNL1        0.0150
      6 C         140.5404  141.8404  170.4359 C.ar    1  UNL1        0.0522
      7 N         140.4348  142.1589  171.8979 N.pl3   1  UNL1       -0.3563
      8 C         140.4790  142.9437  169.4216 C.ar    1  UNL1        0.0706
      9 CL        140.3120  144.3656  169.8692 Cl      1  UNL1       -0.0810
     10 C         140.5846  142.6252  167.9596 C.ar    1  UNL1        0.0155
     11 H         140.4751  141.4348  172.5636 H       1  UNL1        0.1424
     12 H         140.3252  143.0921  172.1917 H       1  UNL1        0.1424
     13 C         140.4571  139.5296  165.5468 C.3     1  UNL1        0.0981
     14 C         140.3590  138.1516  164.9623 C.3     1  UNL1        0.0233
     15 C         138.9374  137.6918  165.0954 C.3     1  UNL1        0.0189
     16 C         138.1570  138.7855  165.7622 C.3     1  UNL1        0.0689
     17 N         139.0962  139.9213  166.0412 N.3     1  UNL1       -0.2938
     18 H         139.1314  140.1030  167.0443 H       1  UNL1        0.1235
     19 C         141.9016  139.4211  165.1576 C.3     1  UNL1        0.0219
     20 C         143.7512  138.1935  166.5075 C.3     1  UNL1        0.0001
     21 C         142.6701  138.1709  165.4679 C.3     1  UNL1        0.0018
@<TRIPOS>BOND
     1    20    21    1
     2    21    19    1
     3    19    13    1
     4    13     1    1
     5     1     2    2
     6     1     3    1
     7     3     4   ar
     8     4     5   ar
     9     5     6   ar
    10     6     7    1
    11     6     8   ar
    12     8     9    1
    13     8    10   ar
    14    13    14    1
    15    14    15    1
    16    15    16    1
    17    16    17    1
    18    17    13    1
    19    10     3   ar
    20     7    11    1
    21     7    12    1
    22    17    18    1
@<TRIPOS>MOLECULE
*****
 21 22 0 0 0
SMALL
GASTEIGER

@<TRIPOS>ATOM
      1 C         139.0374  139.7701  165.8855 C.2     1  UNL1        0.1855
      2 O         138.0717  138.6381  166.0758 O.2     1  UNL1       -0.2900
      3 C         138.6510  140.9528  165.0476 C.ar    1  UNL1        0.0369
      4 C         137.8203  140.7585  163.8138 C.ar    1  UNL1        0.0042
      5 C         137.4340  141.9411  162.9760 C.ar    1  UNL1        0.0150
      6 C         137.8782  143.3180  163.3719 C.ar    1  UNL1        0.0522
      7 N         137.4918  144.5007  162.5340 N.pl3   1  UNL1       -0.3563
      8 C         138.7089  143.5123  164.6057 C.ar    1  UNL1        0.0706
      9 CL        139.1531  144.8892  165.0017 Cl      1  UNL1       -0.0810
     10 C         139.0952  142.3297  165.4436 C.ar    1  UNL1        0.0155
     11 H         136.9467  144.3732  161.7242 H       1  UNL1        0.1424
     12 H         137.7834  145.4044  162.7939 H       1  UNL1        0.1424
     13 C         140.3894  139.7194  166.5332 C.3     1  UNL1        0.0981
     14 C         141.5808  139.7236  167.4445 C.3     1  UNL1        0.0233
     15 C         142.8028  139.4741  166.6110 C.3     1  UNL1        0.0189
     16 C         142.3665  139.3157  165.1847 C.3     1  UNL1        0.0689
     17 N         140.8750  139.4673  165.1365 N.3     1  UNL1       -0.2938
     18 H         140.4519  138.6138  164.7718 H       1  UNL1        0.1235
     19 C         139.6211  139.9821  167.7944 C.3     1  UNL1        0.0219
     20 C         139.4369  141.2008  170.0816 C.3     1  UNL1        0.0001
     21 C         140.0481  141.0854  168.7166 C.3     1  UNL1        0.0018
@<TRIPOS>BOND
     1    20    21    1
     2    21    19    1
     3    19    13    1
     4    13     1    1
     5     1     2    2
     6     1     3    1
     7     3     4   ar
     8     4     5   ar
     9     5     6   ar
    10     6     7    1
    11     6     8   ar
    12     8     9    1
    13     8    10   ar
    14    13    14    1
    15    14    15    1
    16    15    16    1
    17    16    17    1
    18    17    13    1
    19    10     3   ar
    20     7    11    1
    21     7    12    1
    22    17    18    1
@<TRIPOS>MOLECULE
*****
 21 22 0 0 0
SMALL
GASTEIGER

@<TRIPOS>ATOM
      1 C         140.9009  141.9262  166.0668 C.2     1  UNL1        0.1855
      2 O         142.2239  142.0464  165.3702 O.2     1  UNL1       -0.2900
      3 C         140.8474  141.5216  167.5103 C.ar    1  UNL1        0.0369
      4 C         139.9751  142.2766  168.4689 C.ar    1  UNL1        0.0042
      5 C         139.9216  141.8720  169.9123 C.ar    1  UNL1        0.0150
      6 C         140.7404  140.7124  170.3970 C.ar    1  UNL1        0.0522
      7 N         140.6868  140.3078  171.8405 N.pl3   1  UNL1       -0.3563
      8 C         141.6127  139.9574  169.4384 C.ar    1  UNL1        0.0706
      9 CL        142.4314  138.7978  169.9231 Cl      1  UNL1       -0.0810
     10 C         141.6662  140.3620  167.9950 C.ar    1  UNL1        0.0155
     11 H         140.1143  140.8034  172.4697 H       1  UNL1        0.1424
     12 H         141.2242  139.5467  172.1587 H       1  UNL1        0.1424
     13 C         139.6315  142.2106  165.3201 C.3     1  UNL1        0.0981
     14 C         138.3398  142.1825  164.5580 C.3     1  UNL1        0.0233
     15 C         137.9135  143.6002  164.3160 C.3     1  UNL1        0.0189
     16 C         138.9418  144.5044  164.9285 C.3     1  UNL1        0.0689
     17 N         140.0036  143.6455  165.5490 N.3     1  UNL1       -0.2938
     18 H         140.0594  143.8332  166.5500 H       1  UNL1        0.1235
     19 C         139.5249  140.7162  165.2472 C.3     1  UNL1        0.0219
     20 C         138.0912  138.9435  166.4932 C.3     1  UNL1        0.0001
     21 C         138.2036  140.0462  165.4826 C.3     1  UNL1        0.0018
@<TRIPOS>BOND
     1    20    21    1
     2    21    19    1
     3    19    13    1
     4    13     1    1
     5     1     2    2
     6     1     3    1
     7     3     4   ar
     8     4     5   ar
     9     5     6   ar
    10     6     7    1
    11     6     8   ar
    12     8     9    1
    13     8    10   ar
    14    13    14    1
    15    14    15    1
    16    15    16    1
    17    16    17    1
    18    17    13    1
    19    10     3   ar
    20     7    11    1
    21     7    12    1
    22    17    18    1
@<TRIPOS>MOLECULE
*****
 21 22 0 0 0
SMALL
GASTEIGER

@<TRIPOS>ATOM
      1 C         141.6672  141.4139  166.6817 C.2     1  UNL1        0.1855
      2 O         142.7848  140.4427  166.4415 O.2     1  UNL1       -0.2900
      3 C         141.4661  142.5715  165.7492 C.ar    1  UNL1        0.0369
      4 C         140.0886  143.1191  165.5196 C.ar    1  UNL1        0.0042
      5 C         139.8875  144.2766  164.5871 C.ar    1  UNL1        0.0150
      6 C         141.0639  144.8865  163.8842 C.ar    1  UNL1        0.0522
      7 N         140.8628  146.0441  162.9516 N.pl3   1  UNL1       -0.3563
      8 C         142.4413  144.3389  164.1137 C.ar    1  UNL1        0.0706
      9 CL        143.6177  144.9489  163.4107 Cl      1  UNL1       -0.0810
     10 C         142.6424  143.1814  165.0462 C.ar    1  UNL1        0.0155
     11 H         139.9587  146.4036  162.8010 H       1  UNL1        0.1424
     12 H         141.6348  146.4445  162.4902 H       1  UNL1        0.1424
     13 C         140.7508  141.2275  167.8545 C.3     1  UNL1        0.0981
     14 C         139.7556  140.7749  168.8815 C.3     1  UNL1        0.0233
     15 C         139.7088  141.8078  169.9683 C.3     1  UNL1        0.0189
     16 C         140.6751  142.8986  169.6130 C.3     1  UNL1        0.0689
     17 N         141.3190  142.5400  168.3066 N.3     1  UNL1       -0.2938
     18 H         142.3281  142.4563  168.4295 H       1  UNL1        0.1235
     19 C         140.3741  139.9540  167.1572 C.3     1  UNL1        0.0219
     20 C         138.2899  139.7224  165.6233 C.3     1  UNL1        0.0001
     21 C         138.9284  139.5981  166.9750 C.3     1  UNL1        0.0018
@<TRIPOS>BOND
     1    20    21    1
     2    21    19    1
     3    19    13    1
     4    13     1    1
     5     1     2    2
     6     1     3    1
     7     3     4   ar
     8     4     5   ar
     9     5     6   ar
    10     6     7    1
    11     6     8   ar
    12     8     9    1
    13     8    10   ar
    14    13    14    1
    15    14    15    1
    16    15    16    1
    17    16    17    1
    18    17    13    1
    19    10     3   ar
    20     7    11    1
    21     7    12    1
    22    17    18    1
