@<TRIPOS>MOLECULE
*****
 35 38 0 0 0
SMALL
GASTEIGER

@<TRIPOS>ATOM
      1 N         142.0396  143.5114  161.6193 N.3     1  UNL1       -0.2685
      2 C         142.7832  144.0625  162.7997 C.3     1  UNL1        0.1035
      3 C         143.0019  143.2088  164.0135 C.3     1  UNL1        0.1470
      4 C         143.2207  142.3551  165.2274 C.3     1  UNL1        0.1035
      5 N         142.6958  140.9503  165.2608 N.3     1  UNL1       -0.2682
      6 C         141.9522  140.3993  164.0803 C.3     1  UNL1        0.1035
      7 C         141.7335  141.2529  162.8665 C.3     1  UNL1        0.1470
      8 C         141.5147  142.1066  161.6527 C.3     1  UNL1        0.1035
      9 O         142.4770  141.8040  164.0469 O.3     1  UNL1       -0.3530
     10 C         141.8208  144.3651  160.4055 C.3     1  UNL1        0.0737
     11 C         140.5398  145.1291  160.2468 C.3     1  UNL1        0.0362
     12 C         140.0417  145.9984  161.3632 C.3     1  UNL1        0.0929
     13 N         138.7679  145.6496  162.0742 N.3     1  UNL1       -0.1793
     14 H         138.6010  146.3875  162.7584 H       1  UNL1        0.1488
     15 S         138.6505  144.3457  162.8063 S.O2    1  UNL1        0.0602
     16 O         137.8433  143.7828  161.6742 O.2     1  UNL1       -0.1530
     17 O         139.4576  144.9085  163.9384 O.2     1  UNL1       -0.1530
     18 C         138.2983  140.4339  165.0026 C.ar    1  UNL1        0.0685
     19 C         137.6769  140.5912  163.6464 C.ar    1  UNL1        0.0116
     20 C         137.7942  141.8951  162.9143 C.ar    1  UNL1        0.0206
     21 C         138.5330  143.0417  163.5384 C.ar    1  UNL1        0.1220
     22 C         139.1544  142.8844  164.8945 C.ar    1  UNL1        0.0206
     23 C         139.0370  141.5805  165.6266 C.ar    1  UNL1        0.0116
     24 N         138.0634  137.8260  166.4667 N.1     1  UNL1       -0.1908
     25 C         138.1808  139.1299  165.7347 C.1     1  UNL1        0.1004
     26 C         142.9145  140.0966  166.4746 C.3     1  UNL1        0.0769
     27 C         141.7402  139.6114  167.2718 C.3     1  UNL1        0.0437
     28 C         141.0928  140.5147  168.2792 C.ar    1  UNL1       -0.0184
     29 C         139.8028  140.1107  168.9291 C.ar    1  UNL1       -0.0018
     30 C         139.1553  141.0140  169.9366 C.ar    1  UNL1        0.0316
     31 C         139.7979  142.3214  170.2940 C.ar    1  UNL1        0.1674
     32 F         139.1506  143.2247  171.3013 F       1  UNL1       -0.2018
     33 C         141.0880  142.7255  169.6439 C.ar    1  UNL1        0.1671
     34 F         141.7307  144.0329  170.0013 F       1  UNL1       -0.2018
     35 C         141.7354  141.8221  168.6365 C.ar    1  UNL1        0.0277
@<TRIPOS>BOND
     1    24    25    3
     2    25    18    1
     3    18    19   ar
     4    19    20   ar
     5    20    21   ar
     6    21    15    1
     7    15    16    2
     8    15    17    2
     9    15    13    1
    10    13    12    1
    11    12    11    1
    12    11    10    1
    13    10     1    1
    14     1     2    1
    15     2     3    1
    16     3     4    1
    17     4     5    1
    18     5    26    1
    19    26    27    1
    20    27    28    1
    21    28    29   ar
    22    29    30   ar
    23    30    31   ar
    24    31    32    1
    25    31    33   ar
    26    33    34    1
    27    33    35   ar
    28     5     6    1
    29     6     7    1
    30     7     8    1
    31     7     9    1
    32    21    22   ar
    33    22    23   ar
    34    23    18   ar
    35     8     1    1
    36     9     3    1
    37    35    28   ar
    38    13    14    1
@<TRIPOS>MOLECULE
*****
 35 38 0 0 0
SMALL
GASTEIGER

@<TRIPOS>ATOM
      1 N         144.6409  142.5939  162.9631 N.3     1  UNL1       -0.2685
      2 C         144.1776  143.5952  163.9793 C.3     1  UNL1        0.1035
      3 C         142.9879  144.4617  163.6900 C.3     1  UNL1        0.1470
      4 C         141.7981  145.3283  163.4008 C.3     1  UNL1        0.1035
      5 N         141.0717  145.1935  162.0954 N.3     1  UNL1       -0.2682
      6 C         141.5351  144.1921  161.0792 C.3     1  UNL1        0.1035
      7 C         142.7248  143.3256  161.3684 C.3     1  UNL1        0.1470
      8 C         143.9145  142.4591  161.6577 C.3     1  UNL1        0.1035
      9 O         142.2615  144.3269  162.3846 O.3     1  UNL1       -0.3530
     10 C         145.8306  141.7273  163.2524 C.3     1  UNL1        0.0737
     11 C         145.7027  140.5683  164.1958 C.3     1  UNL1        0.0362
     12 C         144.7286  139.4659  163.9020 C.3     1  UNL1        0.0929
     13 N         143.2556  139.7487  163.8953 N.3     1  UNL1       -0.1793
     14 H         143.0860  140.4095  163.1370 H       1  UNL1        0.1488
     15 S         142.5949  140.3136  165.1177 S.O2    1  UNL1        0.0602
     16 O         141.7901  141.2397  164.2548 O.2     1  UNL1       -0.1530
     17 O         143.3996  139.3875  165.9807 O.2     1  UNL1       -0.1530
     18 C         140.6128  142.0083  168.7851 C.ar    1  UNL1        0.0685
     19 C         139.9111  140.9643  167.9680 C.ar    1  UNL1        0.0116
     20 C         140.5718  140.3994  166.7456 C.ar    1  UNL1        0.0206
     21 C         141.9341  140.8785  166.3402 C.ar    1  UNL1        0.1220
     22 C         142.6359  141.9225  167.1573 C.ar    1  UNL1        0.0206
     23 C         141.9752  142.4874  168.3797 C.ar    1  UNL1        0.0116
     24 N         139.2915  143.1381  171.2300 N.1     1  UNL1       -0.1908
     25 C         139.9521  142.5732  170.0076 C.1     1  UNL1        0.1004
     26 C         139.8820  146.0600  161.8061 C.3     1  UNL1        0.0769
     27 C         138.5235  145.6577  162.2989 C.3     1  UNL1        0.0437
     28 C         138.3140  144.2964  162.8929 C.ar    1  UNL1       -0.0184
     29 C         138.4631  144.0922  164.3714 C.ar    1  UNL1       -0.0018
     30 C         138.2536  142.7308  164.9655 C.ar    1  UNL1        0.0316
     31 C         137.8949  141.5737  164.0810 C.ar    1  UNL1        0.1674
     32 F         137.6854  140.2124  164.6750 F       1  UNL1       -0.2018
     33 C         137.7458  141.7779  162.6024 C.ar    1  UNL1        0.1671
     34 F         137.3872  140.6207  161.7179 F       1  UNL1       -0.2018
     35 C         137.9553  143.1392  162.0084 C.ar    1  UNL1        0.0277
@<TRIPOS>BOND
     1    24    25    3
     2    25    18    1
     3    18    19   ar
     4    19    20   ar
     5    20    21   ar
     6    21    15    1
     7    15    16    2
     8    15    17    2
     9    15    13    1
    10    13    12    1
    11    12    11    1
    12    11    10    1
    13    10     1    1
    14     1     2    1
    15     2     3    1
    16     3     4    1
    17     4     5    1
    18     5    26    1
    19    26    27    1
    20    27    28    1
    21    28    29   ar
    22    29    30   ar
    23    30    31   ar
    24    31    32    1
    25    31    33   ar
    26    33    34    1
    27    33    35   ar
    28     5     6    1
    29     6     7    1
    30     7     8    1
    31     7     9    1
    32    21    22   ar
    33    22    23   ar
    34    23    18   ar
    35     8     1    1
    36     9     3    1
    37    35    28   ar
    38    13    14    1
@<TRIPOS>MOLECULE
*****
 35 38 0 0 0
SMALL
GASTEIGER

@<TRIPOS>ATOM
      1 N         141.2308  145.1325  162.2713 N.3     1  UNL1       -0.2685
      2 C         141.8498  144.3045  161.1843 C.3     1  UNL1        0.1035
      3 C         142.9930  143.3863  161.4999 C.3     1  UNL1        0.1470
      4 C         144.1364  142.4679  161.8154 C.3     1  UNL1        0.1035
      5 N         144.6607  142.3775  163.2179 N.3     1  UNL1       -0.2682
      6 C         144.0417  143.2055  164.3048 C.3     1  UNL1        0.1035
      7 C         142.8984  144.1238  163.9893 C.3     1  UNL1        0.1470
      8 C         141.7552  145.0421  163.6737 C.3     1  UNL1        0.1035
      9 O         143.5174  143.2959  162.9024 O.3     1  UNL1       -0.3530
     10 C         140.0875  146.0508  161.9557 C.3     1  UNL1        0.0737
     11 C         138.6850  145.6498  162.3051 C.3     1  UNL1        0.0362
     12 C         138.3569  144.2071  162.5519 C.3     1  UNL1        0.0929
     13 N         137.7965  143.7813  163.8765 N.3     1  UNL1       -0.1793
     14 H         137.5327  144.6329  164.3720 H       1  UNL1        0.1488
     15 S         138.6359  142.9731  164.8210 S.O2    1  UNL1        0.0602
     16 O         138.2216  141.7167  164.1141 O.2     1  UNL1       -0.1530
     17 O         139.0501  144.2295  165.5280 O.2     1  UNL1       -0.1530
     18 C         141.1541  140.5486  167.6548 C.ar    1  UNL1        0.0685
     19 C         139.9865  139.9144  166.9588 C.ar    1  UNL1        0.0116
     20 C         139.1471  140.7225  166.0143 C.ar    1  UNL1        0.0206
     21 C         139.4753  142.1649  165.7657 C.ar    1  UNL1        0.1220
     22 C         140.6430  142.7991  166.4616 C.ar    1  UNL1        0.0206
     23 C         141.4824  141.9909  167.4062 C.ar    1  UNL1        0.0116
     24 N         142.8330  138.9322  169.5440 N.1     1  UNL1       -0.1908
     25 C         141.9936  139.7404  168.5994 C.1     1  UNL1        0.1004
     26 C         145.8040  141.4592  163.5334 C.3     1  UNL1        0.0769
     27 C         145.5552  140.1790  164.2746 C.3     1  UNL1        0.0437
     28 C         144.3305  139.3658  163.9768 C.ar    1  UNL1       -0.0184
     29 C         143.3654  139.0334  165.0758 C.ar    1  UNL1       -0.0018
     30 C         142.1406  138.2201  164.7779 C.ar    1  UNL1        0.0316
     31 C         141.8812  137.7392  163.3810 C.ar    1  UNL1        0.1674
     32 F         140.6565  136.9259  163.0831 F       1  UNL1       -0.2018
     33 C         142.8464  138.0716  162.2819 C.ar    1  UNL1        0.1671
     34 F         142.5869  137.5908  160.8850 F       1  UNL1       -0.2018
     35 C         144.0710  138.8849  162.5798 C.ar    1  UNL1        0.0277
@<TRIPOS>BOND
     1    24    25    3
     2    25    18    1
     3    18    19   ar
     4    19    20   ar
     5    20    21   ar
     6    21    15    1
     7    15    16    2
     8    15    17    2
     9    15    13    1
    10    13    12    1
    11    12    11    1
    12    11    10    1
    13    10     1    1
    14     1     2    1
    15     2     3    1
    16     3     4    1
    17     4     5    1
    18     5    26    1
    19    26    27    1
    20    27    28    1
    21    28    29   ar
    22    29    30   ar
    23    30    31   ar
    24    31    32    1
    25    31    33   ar
    26    33    34    1
    27    33    35   ar
    28     5     6    1
    29     6     7    1
    30     7     8    1
    31     7     9    1
    32    21    22   ar
    33    22    23   ar
    34    23    18   ar
    35     8     1    1
    36     9     3    1
    37    35    28   ar
    38    13    14    1
@<TRIPOS>MOLECULE
*****
 35 38 0 0 0
SMALL
GASTEIGER

@<TRIPOS>ATOM
      1 N         142.3084  139.0436  159.5952 N.3     1  UNL1       -0.2685
      2 C         142.8553  138.3179  160.7886 C.3     1  UNL1        0.1035
      3 C         143.6825  139.0545  161.8000 C.3     1  UNL1        0.1470
      4 C         144.5098  139.7912  162.8115 C.3     1  UNL1        0.1035
      5 N         144.7901  141.2535  162.6295 N.3     1  UNL1       -0.2682
      6 C         144.2431  141.9791  161.4360 C.3     1  UNL1        0.1035
      7 C         143.4159  141.2425  160.4246 C.3     1  UNL1        0.1470
      8 C         142.5887  140.5059  159.4132 C.3     1  UNL1        0.1035
      9 O         143.9628  140.5168  161.6180 O.3     1  UNL1       -0.3530
     10 C         141.4811  138.3069  158.5837 C.3     1  UNL1        0.0737
     11 C         139.9840  138.3774  158.6446 C.3     1  UNL1        0.0362
     12 C         139.3024  138.7541  159.9266 C.3     1  UNL1        0.0929
     13 N         139.2239  137.7663  161.0527 N.3     1  UNL1       -0.1793
     14 H         138.3137  137.3114  160.9823 H       1  UNL1        0.1488
     15 S         139.3662  138.2331  162.4710 S.O2    1  UNL1        0.0602
     16 O         138.3390  139.2978  162.2237 O.2     1  UNL1       -0.1530
     17 O         140.3933  137.1684  162.7184 O.2     1  UNL1       -0.1530
     18 C         139.7931  139.6334  166.7263 C.ar    1  UNL1        0.0685
     19 C         141.0108  139.2612  165.9334 C.ar    1  UNL1        0.0116
     20 C         140.8685  138.7944  164.5150 C.ar    1  UNL1        0.0206
     21 C         139.5085  138.6999  163.8895 C.ar    1  UNL1        0.1220
     22 C         138.2908  139.0721  164.6824 C.ar    1  UNL1        0.0206
     23 C         138.4331  139.5388  166.1007 C.ar    1  UNL1        0.0116
     24 N         140.0778  140.5669  169.5631 N.1     1  UNL1       -0.1908
     25 C         139.9354  140.1001  168.1447 C.1     1  UNL1        0.1004
     26 C         145.6174  141.9901  163.6409 C.3     1  UNL1        0.0769
     27 C         144.9494  142.7149  164.7717 C.3     1  UNL1        0.0437
     28 C         143.6022  143.3422  164.5687 C.ar    1  UNL1       -0.0184
     29 C         143.4958  144.7124  163.9677 C.ar    1  UNL1       -0.0018
     30 C         142.1484  145.3398  163.7647 C.ar    1  UNL1        0.0316
     31 C         140.9076  144.5970  164.1626 C.ar    1  UNL1        0.1674
     32 F         139.5603  145.2243  163.9596 F       1  UNL1       -0.2018
     33 C         141.0140  143.2267  164.7636 C.ar    1  UNL1        0.1671
     34 F         139.7731  142.4838  165.1615 F       1  UNL1       -0.2018
     35 C         142.3613  142.5994  164.9666 C.ar    1  UNL1        0.0277
@<TRIPOS>BOND
     1    24    25    3
     2    25    18    1
     3    18    19   ar
     4    19    20   ar
     5    20    21   ar
     6    21    15    1
     7    15    16    2
     8    15    17    2
     9    15    13    1
    10    13    12    1
    11    12    11    1
    12    11    10    1
    13    10     1    1
    14     1     2    1
    15     2     3    1
    16     3     4    1
    17     4     5    1
    18     5    26    1
    19    26    27    1
    20    27    28    1
    21    28    29   ar
    22    29    30   ar
    23    30    31   ar
    24    31    32    1
    25    31    33   ar
    26    33    34    1
    27    33    35   ar
    28     5     6    1
    29     6     7    1
    30     7     8    1
    31     7     9    1
    32    21    22   ar
    33    22    23   ar
    34    23    18   ar
    35     8     1    1
    36     9     3    1
    37    35    28   ar
    38    13    14    1
@<TRIPOS>MOLECULE
*****
 35 38 0 0 0
SMALL
GASTEIGER

@<TRIPOS>ATOM
      1 N         142.2185  144.3065  160.1659 N.3     1  UNL1       -0.2685
      2 C         142.1085  144.6135  161.6300 C.3     1  UNL1        0.1035
      3 C         142.9171  143.8324  162.6229 C.3     1  UNL1        0.1470
      4 C         143.7257  143.0512  163.6159 C.3     1  UNL1        0.1035
      5 N         144.6442  141.9629  163.1447 N.3     1  UNL1       -0.2682
      6 C         144.7541  141.6559  161.6806 C.3     1  UNL1        0.1035
      7 C         143.9456  142.4370  160.6876 C.3     1  UNL1        0.1470
      8 C         143.1370  143.2182  159.6947 C.3     1  UNL1        0.1035
      9 O         143.8356  142.7441  162.1517 O.3     1  UNL1       -0.3530
     10 C         141.4099  145.0877  159.1729 C.3     1  UNL1        0.0737
     11 C         139.9708  144.7370  158.9358 C.3     1  UNL1        0.0362
     12 C         139.5155  143.3131  159.0604 C.3     1  UNL1        0.0929
     13 N         138.5082  142.9366  160.1061 N.3     1  UNL1       -0.1793
     14 H         137.7391  143.6020  160.0272 H       1  UNL1        0.1488
     15 S         138.9052  142.9031  161.5521 S.O2    1  UNL1        0.0602
     16 O         137.8142  143.8808  161.8743 O.2     1  UNL1       -0.1530
     17 O         139.9962  141.9254  161.2300 O.2     1  UNL1       -0.1530
     18 C         140.0964  142.8025  165.8905 C.ar    1  UNL1        0.0685
     19 C         140.3376  141.6060  165.0185 C.ar    1  UNL1        0.0116
     20 C         139.9406  141.6395  163.5725 C.ar    1  UNL1        0.0206
     21 C         139.3023  142.8695  162.9983 C.ar    1  UNL1        0.1220
     22 C         139.0610  144.0660  163.8702 C.ar    1  UNL1        0.0206
     23 C         139.4581  144.0325  165.3163 C.ar    1  UNL1        0.0116
     24 N         140.8905  142.7354  168.7827 N.1     1  UNL1       -0.1908
     25 C         140.4934  142.7689  167.3366 C.1     1  UNL1        0.1004
     26 C         145.4528  141.1818  164.1376 C.3     1  UNL1        0.0769
     27 C         145.2637  139.6985  164.2578 C.3     1  UNL1        0.0437
     28 C         143.8837  139.1272  164.3961 C.ar    1  UNL1       -0.0184
     29 C         143.2107  139.1085  165.7365 C.ar    1  UNL1       -0.0018
     30 C         141.8306  138.5371  165.8749 C.ar    1  UNL1        0.0316
     31 C         141.1237  137.9844  164.6729 C.ar    1  UNL1        0.1674
     32 F         139.7437  137.4130  164.8112 F       1  UNL1       -0.2018
     33 C         141.7968  138.0031  163.3325 C.ar    1  UNL1        0.1671
     34 F         141.0899  137.4505  162.1305 F       1  UNL1       -0.2018
     35 C         143.1768  138.5745  163.1941 C.ar    1  UNL1        0.0277
@<TRIPOS>BOND
     1    24    25    3
     2    25    18    1
     3    18    19   ar
     4    19    20   ar
     5    20    21   ar
     6    21    15    1
     7    15    16    2
     8    15    17    2
     9    15    13    1
    10    13    12    1
    11    12    11    1
    12    11    10    1
    13    10     1    1
    14     1     2    1
    15     2     3    1
    16     3     4    1
    17     4     5    1
    18     5    26    1
    19    26    27    1
    20    27    28    1
    21    28    29   ar
    22    29    30   ar
    23    30    31   ar
    24    31    32    1
    25    31    33   ar
    26    33    34    1
    27    33    35   ar
    28     5     6    1
    29     6     7    1
    30     7     8    1
    31     7     9    1
    32    21    22   ar
    33    22    23   ar
    34    23    18   ar
    35     8     1    1
    36     9     3    1
    37    35    28   ar
    38    13    14    1
@<TRIPOS>MOLECULE
*****
 35 38 0 0 0
SMALL
GASTEIGER

@<TRIPOS>ATOM
      1 N         139.3500  142.3930  161.1766 N.3     1  UNL1       -0.2685
      2 C         140.1207  141.1075  161.2349 C.3     1  UNL1        0.1035
      3 C         140.1538  140.3099  162.5049 C.3     1  UNL1        0.1470
      4 C         140.1869  139.5123  163.7748 C.3     1  UNL1        0.1035
      5 N         139.4494  140.0003  164.9864 N.3     1  UNL1       -0.2682
      6 C         138.6787  141.2859  164.9280 C.3     1  UNL1        0.1035
      7 C         138.6456  142.0835  163.6581 C.3     1  UNL1        0.1470
      8 C         138.6125  142.8810  162.3881 C.3     1  UNL1        0.1035
      9 O         139.4163  140.7979  163.7164 O.3     1  UNL1       -0.3530
     10 C         139.3169  143.1907  159.9066 C.3     1  UNL1        0.0737
     11 C         140.4436  144.1248  159.5780 C.3     1  UNL1        0.0362
     12 C         140.8616  145.1726  160.5667 C.3     1  UNL1        0.0929
     13 N         142.2075  145.0894  161.2238 N.3     1  UNL1       -0.1793
     14 H         142.9012  145.0989  160.4761 H       1  UNL1        0.1488
     15 S         142.5395  143.9241  162.1079 S.O2    1  UNL1        0.0602
     16 O         141.4687  144.3480  163.0689 O.2     1  UNL1       -0.1530
     17 O         143.6103  143.5001  161.1469 O.2     1  UNL1       -0.1530
     18 C         143.5359  140.4281  164.7603 C.ar    1  UNL1        0.0685
     19 C         144.0239  140.4566  163.3422 C.ar    1  UNL1        0.0116
     20 C         143.6918  141.6219  162.4581 C.ar    1  UNL1        0.0206
     21 C         142.8717  142.7587  162.9921 C.ar    1  UNL1        0.1220
     22 C         142.3837  142.7301  164.4102 C.ar    1  UNL1        0.0206
     23 C         142.7158  141.5648  165.2943 C.ar    1  UNL1        0.0116
     24 N         144.2002  138.0974  166.5286 N.1     1  UNL1       -0.1908
     25 C         143.8680  139.2627  165.6445 C.1     1  UNL1        0.1004
     26 C         139.4825  139.2027  166.2563 C.3     1  UNL1        0.0769
     27 C         139.2568  139.8819  167.5746 C.3     1  UNL1        0.0437
     28 C         140.3854  140.6034  168.2496 C.ar    1  UNL1       -0.0184
     29 C         141.7065  139.9187  168.4392 C.ar    1  UNL1       -0.0018
     30 C         142.8352  140.6402  169.1141 C.ar    1  UNL1        0.0316
     31 C         142.6428  142.0464  169.5994 C.ar    1  UNL1        0.1674
     32 F         143.7715  142.7679  170.2743 F       1  UNL1       -0.2018
     33 C         141.3217  142.7311  169.4098 C.ar    1  UNL1        0.1671
     34 F         141.1293  144.1374  169.8951 F       1  UNL1       -0.2018
     35 C         140.1931  142.0096  168.7349 C.ar    1  UNL1        0.0277
@<TRIPOS>BOND
     1    24    25    3
     2    25    18    1
     3    18    19   ar
     4    19    20   ar
     5    20    21   ar
     6    21    15    1
     7    15    16    2
     8    15    17    2
     9    15    13    1
    10    13    12    1
    11    12    11    1
    12    11    10    1
    13    10     1    1
    14     1     2    1
    15     2     3    1
    16     3     4    1
    17     4     5    1
    18     5    26    1
    19    26    27    1
    20    27    28    1
    21    28    29   ar
    22    29    30   ar
    23    30    31   ar
    24    31    32    1
    25    31    33   ar
    26    33    34    1
    27    33    35   ar
    28     5     6    1
    29     6     7    1
    30     7     8    1
    31     7     9    1
    32    21    22   ar
    33    22    23   ar
    34    23    18   ar
    35     8     1    1
    36     9     3    1
    37    35    28   ar
    38    13    14    1
@<TRIPOS>MOLECULE
*****
 35 38 0 0 0
SMALL
GASTEIGER

@<TRIPOS>ATOM
      1 N         139.6638  139.8641  159.7286 N.3     1  UNL1       -0.2685
      2 C         139.8224  141.3093  159.3598 C.3     1  UNL1        0.1035
      3 C         139.3742  142.3795  160.3106 C.3     1  UNL1        0.1470
      4 C         138.9260  143.4497  161.2613 C.3     1  UNL1        0.1035
      5 N         138.3192  143.0745  162.5808 N.3     1  UNL1       -0.2682
      6 C         138.1607  141.6292  162.9496 C.3     1  UNL1        0.1035
      7 C         138.6089  140.5591  161.9989 C.3     1  UNL1        0.1470
      8 C         139.0570  139.4889  161.0481 C.3     1  UNL1        0.1035
      9 O         138.7674  142.0043  161.6301 O.3     1  UNL1       -0.3530
     10 C         140.1120  138.7939  158.7779 C.3     1  UNL1        0.0737
     11 C         141.4661  138.8781  158.1380 C.3     1  UNL1        0.0362
     12 C         142.6993  138.8949  158.9918 C.3     1  UNL1        0.0929
     13 N         142.9498  137.7853  159.9695 N.3     1  UNL1       -0.1793
     14 H         142.2370  137.0760  159.7989 H       1  UNL1        0.1488
     15 S         142.9368  138.0667  161.4428 S.O2    1  UNL1        0.0602
     16 O         141.6666  137.2811  161.5816 O.2     1  UNL1       -0.1530
     17 O         144.2070  138.8523  161.3040 O.2     1  UNL1       -0.1530
     18 C         142.8979  138.9109  165.8627 C.ar    1  UNL1        0.0685
     19 C         141.7261  138.2310  165.2186 C.ar    1  UNL1        0.0116
     20 C         141.7391  137.9496  163.7454 C.ar    1  UNL1        0.0206
     21 C         142.9238  138.3481  162.9161 C.ar    1  UNL1        0.1220
     22 C         144.0955  139.0279  163.5602 C.ar    1  UNL1        0.0206
     23 C         144.0826  139.3093  165.0335 C.ar    1  UNL1        0.0116
     24 N         142.8718  139.4737  168.8093 N.1     1  UNL1       -0.1908
     25 C         142.8849  139.1923  167.3361 C.1     1  UNL1        0.1004
     26 C         137.8710  144.1446  163.5316 C.3     1  UNL1        0.0769
     27 C         138.7641  144.5672  164.6603 C.3     1  UNL1        0.0437
     28 C         140.2018  144.1399  164.6794 C.ar    1  UNL1       -0.0184
     29 C         140.6119  142.9219  165.4529 C.ar    1  UNL1       -0.0018
     30 C         142.0497  142.4946  165.4721 C.ar    1  UNL1        0.0316
     31 C         143.0773  143.2852  164.7178 C.ar    1  UNL1        0.1674
     32 F         144.5149  142.8579  164.7369 F       1  UNL1       -0.2018
     33 C         142.6671  144.5032  163.9442 C.ar    1  UNL1        0.1671
     34 F         143.6946  145.2939  163.1899 F       1  UNL1       -0.2018
     35 C         141.2294  144.9305  163.9251 C.ar    1  UNL1        0.0277
@<TRIPOS>BOND
     1    24    25    3
     2    25    18    1
     3    18    19   ar
     4    19    20   ar
     5    20    21   ar
     6    21    15    1
     7    15    16    2
     8    15    17    2
     9    15    13    1
    10    13    12    1
    11    12    11    1
    12    11    10    1
    13    10     1    1
    14     1     2    1
    15     2     3    1
    16     3     4    1
    17     4     5    1
    18     5    26    1
    19    26    27    1
    20    27    28    1
    21    28    29   ar
    22    29    30   ar
    23    30    31   ar
    24    31    32    1
    25    31    33   ar
    26    33    34    1
    27    33    35   ar
    28     5     6    1
    29     6     7    1
    30     7     8    1
    31     7     9    1
    32    21    22   ar
    33    22    23   ar
    34    23    18   ar
    35     8     1    1
    36     9     3    1
    37    35    28   ar
    38    13    14    1
@<TRIPOS>MOLECULE
*****
 35 38 0 0 0
SMALL
GASTEIGER

@<TRIPOS>ATOM
      1 N         142.2446  142.7167  161.1763 N.3     1  UNL1       -0.2685
      2 C         142.4556  141.2318  161.1564 C.3     1  UNL1        0.1035
      3 C         142.3282  140.4392  162.4234 C.3     1  UNL1        0.1470
      4 C         142.2008  139.6464  163.6905 C.3     1  UNL1        0.1035
      5 N         141.8623  140.3386  164.9775 N.3     1  UNL1       -0.2682
      6 C         141.6512  141.8236  164.9973 C.3     1  UNL1        0.1035
      7 C         141.7787  142.6163  163.7303 C.3     1  UNL1        0.1470
      8 C         141.9061  143.4090  162.4633 C.3     1  UNL1        0.1035
      9 O         141.9897  141.1314  163.7104 O.3     1  UNL1       -0.3530
     10 C         142.3720  143.5095  159.9093 C.3     1  UNL1        0.0737
     11 C         141.2121  143.6022  158.9627 C.3     1  UNL1        0.0362
     12 C         139.8840  144.1005  159.4505 C.3     1  UNL1        0.0929
     13 N         138.7414  143.1441  159.6230 N.3     1  UNL1       -0.1793
     14 H         137.8844  143.6860  159.5117 H       1  UNL1        0.1488
     15 S         138.5998  142.3671  160.8982 S.O2    1  UNL1        0.0602
     16 O         139.0760  141.1296  160.1969 O.2     1  UNL1       -0.1530
     17 O         138.1237  143.6045  161.5994 O.2     1  UNL1       -0.1530
     18 C         138.1751  140.0358  164.7237 C.ar    1  UNL1        0.0685
     19 C         137.9780  141.5228  164.7257 C.ar    1  UNL1        0.0116
     20 C         138.1195  142.2999  163.4506 C.ar    1  UNL1        0.0206
     21 C         138.4582  141.5900  162.1734 C.ar    1  UNL1        0.1220
     22 C         138.6554  140.1030  162.1713 C.ar    1  UNL1        0.0206
     23 C         138.5138  139.3259  163.4465 C.ar    1  UNL1        0.0116
     24 N         137.8920  138.4816  167.2741 N.1     1  UNL1       -0.1908
     25 C         138.0335  139.2587  165.9989 C.1     1  UNL1        0.1004
     26 C         141.7349  139.5460  166.2445 C.3     1  UNL1        0.0769
     27 C         142.3269  140.0695  167.5195 C.3     1  UNL1        0.0437
     28 C         141.4815  140.8685  168.4664 C.ar    1  UNL1       -0.0184
     29 C         140.2284  140.2738  169.0374 C.ar    1  UNL1       -0.0018
     30 C         139.3829  141.0729  169.9844 C.ar    1  UNL1        0.0316
     31 C         139.7905  142.4666  170.3602 C.ar    1  UNL1        0.1674
     32 F         138.9450  143.2657  171.3071 F       1  UNL1       -0.2018
     33 C         141.0436  143.0613  169.7892 C.ar    1  UNL1        0.1671
     34 F         141.4512  144.4551  170.1651 F       1  UNL1       -0.2018
     35 C         141.8891  142.2623  168.8423 C.ar    1  UNL1        0.0277
@<TRIPOS>BOND
     1    24    25    3
     2    25    18    1
     3    18    19   ar
     4    19    20   ar
     5    20    21   ar
     6    21    15    1
     7    15    16    2
     8    15    17    2
     9    15    13    1
    10    13    12    1
    11    12    11    1
    12    11    10    1
    13    10     1    1
    14     1     2    1
    15     2     3    1
    16     3     4    1
    17     4     5    1
    18     5    26    1
    19    26    27    1
    20    27    28    1
    21    28    29   ar
    22    29    30   ar
    23    30    31   ar
    24    31    32    1
    25    31    33   ar
    26    33    34    1
    27    33    35   ar
    28     5     6    1
    29     6     7    1
    30     7     8    1
    31     7     9    1
    32    21    22   ar
    33    22    23   ar
    34    23    18   ar
    35     8     1    1
    36     9     3    1
    37    35    28   ar
    38    13    14    1
@<TRIPOS>MOLECULE
*****
 35 38 0 0 0
SMALL
GASTEIGER

@<TRIPOS>ATOM
      1 N         142.4126  142.4280  167.7941 N.3     1  UNL1       -0.2685
      2 C         143.0415  142.4297  166.4324 C.3     1  UNL1        0.1035
      3 C         142.2341  142.8316  165.2339 C.3     1  UNL1        0.1470
      4 C         141.4266  143.2336  164.0353 C.3     1  UNL1        0.1035
      5 N         139.9902  143.6337  164.1985 N.3     1  UNL1       -0.2682
      6 C         139.3613  143.6319  165.5603 C.3     1  UNL1        0.1035
      7 C         140.1687  143.2300  166.7588 C.3     1  UNL1        0.1470
      8 C         140.9762  142.8281  167.9574 C.3     1  UNL1        0.1035
      9 O         140.7977  143.2318  165.3971 O.3     1  UNL1       -0.3530
     10 C         143.2200  142.0261  168.9927 C.3     1  UNL1        0.0737
     11 C         142.8602  140.7875  169.7584 C.3     1  UNL1        0.0362
     12 C         142.3029  139.5957  169.0379 C.3     1  UNL1        0.0929
     13 N         143.2169  138.6908  168.2662 N.3     1  UNL1       -0.1793
     14 H         144.1689  139.0074  168.4503 H       1  UNL1        0.1488
     15 S         143.0785  138.5780  166.7769 S.O2    1  UNL1        0.0602
     16 O         144.4031  137.8778  166.7068 O.2     1  UNL1       -0.1530
     17 O         141.7539  139.2783  166.8469 O.2     1  UNL1       -0.1530
     18 C         142.6632  138.2398  162.3089 C.ar    1  UNL1        0.0685
     19 C         141.6194  137.6440  163.2064 C.ar    1  UNL1        0.0116
     20 C         141.7578  137.7568  164.6957 C.ar    1  UNL1        0.0206
     21 C         142.9400  138.4653  165.2875 C.ar    1  UNL1        0.1220
     22 C         143.9839  139.0610  164.3900 C.ar    1  UNL1        0.0206
     23 C         143.8454  138.9483  162.9007 C.ar    1  UNL1        0.0116
     24 N         142.3863  138.0143  159.3302 N.1     1  UNL1       -0.1908
     25 C         142.5247  138.1270  160.8195 C.1     1  UNL1        0.1004
     26 C         139.1828  144.0356  163.0000 C.3     1  UNL1        0.0769
     27 C         137.9796  143.2327  162.6027 C.3     1  UNL1        0.0437
     28 C         138.0521  141.7347  162.5785 C.ar    1  UNL1       -0.0184
     29 C         138.0107  141.0029  161.2698 C.ar    1  UNL1       -0.0018
     30 C         138.0832  139.5048  161.2456 C.ar    1  UNL1        0.0316
     31 C         138.1972  138.7386  162.5301 C.ar    1  UNL1        0.1674
     32 F         138.2697  137.2406  162.5059 F       1  UNL1       -0.2018
     33 C         138.2386  139.4705  163.8388 C.ar    1  UNL1        0.1671
     34 F         138.3525  138.7043  165.1233 F       1  UNL1       -0.2018
     35 C         138.1661  140.9685  163.8630 C.ar    1  UNL1        0.0277
@<TRIPOS>BOND
     1    24    25    3
     2    25    18    1
     3    18    19   ar
     4    19    20   ar
     5    20    21   ar
     6    21    15    1
     7    15    16    2
     8    15    17    2
     9    15    13    1
    10    13    12    1
    11    12    11    1
    12    11    10    1
    13    10     1    1
    14     1     2    1
    15     2     3    1
    16     3     4    1
    17     4     5    1
    18     5    26    1
    19    26    27    1
    20    27    28    1
    21    28    29   ar
    22    29    30   ar
    23    30    31   ar
    24    31    32    1
    25    31    33   ar
    26    33    34    1
    27    33    35   ar
    28     5     6    1
    29     6     7    1
    30     7     8    1
    31     7     9    1
    32    21    22   ar
    33    22    23   ar
    34    23    18   ar
    35     8     1    1
    36     9     3    1
    37    35    28   ar
    38    13    14    1
