@<TRIPOS>MOLECULE
*****
 33 37 0 0 0
SMALL
GASTEIGER

@<TRIPOS>ATOM
      1 C         138.6839  139.8851  165.0247 C.ar    1  UNL1        0.0016
      2 C         137.9130  139.0500  166.0035 C.ar    1  UNL1        0.0016
      3 C         138.2926  139.0536  167.4547 C.ar    1  UNL1        0.0192
      4 C         139.4429  139.8924  167.9270 C.ar    1  UNL1        0.0845
      5 N         139.8225  139.8960  169.3782 N.ar    1  UNL1       -0.2240
      6 C         140.9728  140.7348  169.8505 C.ar    1  UNL1        0.1988
      7 N         141.7437  141.5700  168.8715 N.ar    1  UNL1       -0.2239
      8 C         141.3642  141.5664  167.4203 C.ar    1  UNL1        0.0859
      9 C         140.2138  140.7276  166.9481 C.ar    1  UNL1        0.0354
     10 C         139.8343  140.7239  165.4969 C.ar    1  UNL1        0.0030
     11 C         137.5453  139.8743  160.6710 C.ar    1  UNL1        0.2250
     12 C         138.0836  138.6278  161.3085 C.ar    1  UNL1        0.0577
     13 C         138.4631  138.6314  162.7598 C.ar    1  UNL1        0.0063
     14 C         138.3043  139.8815  163.5734 C.ar    1  UNL1        0.0194
     15 C         137.7661  141.1280  162.9359 C.ar    1  UNL1        0.1020
     16 N         137.3865  141.1245  161.4847 N.ar    1  UNL1       -0.2101
     17 C         138.0054  140.6135  158.2233 C.3     1  UNL1        0.2542
     18 O         137.1658  139.8708  159.2199 O.3     1  UNL1       -0.4561
     19 C         142.1350  142.4015  166.4415 C.ar    1  UNL1        0.0371
     20 C         143.6170  142.5687  166.6018 C.ar    1  UNL1        0.1003
     21 N         144.3879  143.4039  165.6229 N.ar    1  UNL1       -0.2421
     22 C         143.6767  144.0719  164.4836 C.ar    1  UNL1        0.1034
     23 C         142.1947  143.9048  164.3232 C.ar    1  UNL1        0.0728
     24 C         141.4239  143.0696  165.3021 C.ar    1  UNL1        0.0091
     25 C         141.4835  144.5728  163.1839 C.2     1  UNL1        0.2506
     26 O         140.3552  145.5225  163.4576 O.2     1  UNL1       -0.2699
     27 N         141.9007  144.2912  161.7709 N.am    1  UNL1       -0.2732
     28 C         143.0291  143.3415  161.4972 C.3     1  UNL1        0.1110
     29 C         143.4463  143.0599  160.0842 C.3     1  UNL1        0.0939
     30 N         142.7351  143.7280  158.9448 N.3     1  UNL1       -0.2686
     31 C         143.1524  143.4464  157.5319 C.3     1  UNL1        0.0897
     32 C         141.6068  144.6777  159.2186 C.3     1  UNL1        0.0939
     33 C         141.1896  144.9593  160.6317 C.3     1  UNL1        0.1110
@<TRIPOS>BOND
     1    17    18    1
     2    18    11    1
     3    11    12   ar
     4    12    13   ar
     5    13    14   ar
     6    14     1    1
     7     1     2   ar
     8     2     3   ar
     9     3     4   ar
    10     4     5   ar
    11     5     6   ar
    12     6     7   ar
    13     7     8   ar
    14     8    19    1
    15    19    20   ar
    16    20    21   ar
    17    21    22   ar
    18    22    23   ar
    19    23    25    1
    20    25    26    2
    21    25    27   am
    22    27    28    1
    23    28    29    1
    24    29    30    1
    25    30    31    1
    26    30    32    1
    27    32    33    1
    28    23    24   ar
    29     8     9   ar
    30     9    10   ar
    31    14    15   ar
    32    15    16   ar
    33    16    11   ar
    34    10     1   ar
    35     9     4   ar
    36    24    19   ar
    37    33    27    1
@<TRIPOS>MOLECULE
*****
 33 37 0 0 0
SMALL
GASTEIGER

@<TRIPOS>ATOM
      1 C         138.8318  139.8421  165.1365 C.ar    1  UNL1        0.0016
      2 C         137.9515  139.2176  166.1781 C.ar    1  UNL1        0.0016
      3 C         138.3824  139.2051  167.6148 C.ar    1  UNL1        0.0192
      4 C         139.6936  139.8172  168.0099 C.ar    1  UNL1        0.0845
      5 N         140.1245  139.8048  169.4467 N.ar    1  UNL1       -0.2240
      6 C         141.4357  140.4169  169.8417 C.ar    1  UNL1        0.1988
      7 N         142.3160  141.0414  168.8000 N.ar    1  UNL1       -0.2239
      8 C         141.8851  141.0539  167.3634 C.ar    1  UNL1        0.0859
      9 C         140.5739  140.4418  166.9683 C.ar    1  UNL1        0.0354
     10 C         140.1430  140.4542  165.5316 C.ar    1  UNL1        0.0030
     11 C         137.5391  139.8796  160.8263 C.ar    1  UNL1        0.2250
     12 C         138.0595  138.6148  161.4422 C.ar    1  UNL1        0.0577
     13 C         138.4904  138.6023  162.8790 C.ar    1  UNL1        0.0063
     14 C         138.4009  139.8546  163.6997 C.ar    1  UNL1        0.0194
     15 C         137.8804  141.1194  163.0838 C.ar    1  UNL1        0.1020
     16 N         137.4496  141.1320  161.6471 N.ar    1  UNL1       -0.2101
     17 C         137.9309  140.6172  158.3662 C.3     1  UNL1        0.2542
     18 O         137.1082  139.8921  159.3896 O.3     1  UNL1       -0.4561
     19 C         142.7654  141.6785  166.3217 C.ar    1  UNL1        0.0371
     20 C         143.6544  142.8310  166.6841 C.ar    1  UNL1        0.1003
     21 N         144.5347  143.4556  165.6424 N.ar    1  UNL1       -0.2421
     22 C         144.5260  142.9276  164.2384 C.ar    1  UNL1        0.1034
     23 C         143.6369  141.7750  163.8761 C.ar    1  UNL1        0.0728
     24 C         142.7567  141.1505  164.9177 C.ar    1  UNL1        0.0091
     25 C         143.6282  141.2471  162.4721 C.2     1  UNL1        0.2506
     26 O         144.5284  140.1085  162.0934 O.2     1  UNL1       -0.2699
     27 N         142.7194  141.8576  161.4468 N.am    1  UNL1       -0.2732
     28 C         141.8193  142.9962  161.8255 C.3     1  UNL1        0.1110
     29 C         140.9105  143.6068  160.8002 C.3     1  UNL1        0.0939
     30 N         140.9018  143.0788  159.3962 N.3     1  UNL1       -0.2686
     31 C         139.9930  143.6894  158.3709 C.3     1  UNL1        0.0897
     32 C         141.8019  141.9403  159.0175 C.3     1  UNL1        0.0939
     33 C         142.7108  141.3297  160.0429 C.3     1  UNL1        0.1110
@<TRIPOS>BOND
     1    17    18    1
     2    18    11    1
     3    11    12   ar
     4    12    13   ar
     5    13    14   ar
     6    14     1    1
     7     1     2   ar
     8     2     3   ar
     9     3     4   ar
    10     4     5   ar
    11     5     6   ar
    12     6     7   ar
    13     7     8   ar
    14     8    19    1
    15    19    20   ar
    16    20    21   ar
    17    21    22   ar
    18    22    23   ar
    19    23    25    1
    20    25    26    2
    21    25    27   am
    22    27    28    1
    23    28    29    1
    24    29    30    1
    25    30    31    1
    26    30    32    1
    27    32    33    1
    28    23    24   ar
    29     8     9   ar
    30     9    10   ar
    31    14    15   ar
    32    15    16   ar
    33    16    11   ar
    34    10     1   ar
    35     9     4   ar
    36    24    19   ar
    37    33    27    1
@<TRIPOS>MOLECULE
*****
 33 37 0 0 0
SMALL
GASTEIGER

@<TRIPOS>ATOM
      1 C         139.9637  143.1122  165.2867 C.ar    1  UNL1        0.0016
      2 C         138.9079  144.1758  165.3498 C.ar    1  UNL1        0.0016
      3 C         138.6916  145.0881  164.1789 C.ar    1  UNL1        0.0192
      4 C         139.5310  144.9368  162.9451 C.ar    1  UNL1        0.0845
      5 N         139.3146  145.8492  161.7742 N.ar    1  UNL1       -0.2240
      6 C         140.1540  145.6978  160.5403 C.ar    1  UNL1        0.1988
      7 N         141.2099  144.6341  160.4773 N.ar    1  UNL1       -0.2239
      8 C         141.4262  143.7219  161.6481 C.ar    1  UNL1        0.0859
      9 C         140.5868  143.8732  162.8820 C.ar    1  UNL1        0.0354
     10 C         140.8031  142.9609  164.0528 C.ar    1  UNL1        0.0030
     11 C         140.6128  140.3751  168.7992 C.ar    1  UNL1        0.2250
     12 C         140.8795  141.8450  168.9345 C.ar    1  UNL1        0.0577
     13 C         140.6631  142.7574  167.7636 C.ar    1  UNL1        0.0063
     14 C         140.1801  142.1998  166.4576 C.ar    1  UNL1        0.0194
     15 C         139.9135  140.7299  166.3223 C.ar    1  UNL1        0.1020
     16 N         140.1298  139.8176  167.4931 N.ar    1  UNL1       -0.2101
     17 C         142.2068  138.9592  170.2838 C.3     1  UNL1        0.2542
     18 O         140.8292  139.4628  169.9700 O.3     1  UNL1       -0.4561
     19 C         142.4820  142.6582  161.5851 C.ar    1  UNL1        0.0371
     20 C         143.8589  142.9361  162.1112 C.ar    1  UNL1        0.1003
     21 N         144.9147  141.8724  162.0481 N.ar    1  UNL1       -0.2421
     22 C         144.5936  140.5309  161.4589 C.ar    1  UNL1        0.1034
     23 C         143.2166  140.2530  160.9328 C.ar    1  UNL1        0.0728
     24 C         142.1608  141.3167  160.9959 C.ar    1  UNL1        0.0091
     25 C         142.8955  138.9115  160.3436 C.2     1  UNL1        0.2506
     26 O         142.5035  137.7735  161.2389 O.2     1  UNL1       -0.2699
     27 N         142.9663  138.7078  158.8592 N.am    1  UNL1       -0.2732
     28 C         143.3583  139.8458  157.9639 C.3     1  UNL1        0.1110
     29 C         143.4291  139.6421  156.4795 C.3     1  UNL1        0.0939
     30 N         143.1080  138.3006  155.8903 N.3     1  UNL1       -0.2686
     31 C         143.1788  138.0969  154.4059 C.3     1  UNL1        0.0897
     32 C         142.7160  137.1626  156.7856 C.3     1  UNL1        0.0939
     33 C         142.6452  137.3663  158.2701 C.3     1  UNL1        0.1110
@<TRIPOS>BOND
     1    17    18    1
     2    18    11    1
     3    11    12   ar
     4    12    13   ar
     5    13    14   ar
     6    14     1    1
     7     1     2   ar
     8     2     3   ar
     9     3     4   ar
    10     4     5   ar
    11     5     6   ar
    12     6     7   ar
    13     7     8   ar
    14     8    19    1
    15    19    20   ar
    16    20    21   ar
    17    21    22   ar
    18    22    23   ar
    19    23    25    1
    20    25    26    2
    21    25    27   am
    22    27    28    1
    23    28    29    1
    24    29    30    1
    25    30    31    1
    26    30    32    1
    27    32    33    1
    28    23    24   ar
    29     8     9   ar
    30     9    10   ar
    31    14    15   ar
    32    15    16   ar
    33    16    11   ar
    34    10     1   ar
    35     9     4   ar
    36    24    19   ar
    37    33    27    1
@<TRIPOS>MOLECULE
*****
 33 37 0 0 0
SMALL
GASTEIGER

@<TRIPOS>ATOM
      1 C         142.4847  139.5097  164.3968 C.ar    1  UNL1        0.0016
      2 C         143.2989  139.0330  165.5628 C.ar    1  UNL1        0.0016
      3 C         143.1325  139.6772  166.9071 C.ar    1  UNL1        0.0192
      4 C         142.1517  140.7980  167.0855 C.ar    1  UNL1        0.0845
      5 N         141.9853  141.4422  168.4299 N.ar    1  UNL1       -0.2240
      6 C         141.0046  142.5630  168.6082 C.ar    1  UNL1        0.1988
      7 N         140.1902  143.0397  167.4421 N.ar    1  UNL1       -0.2239
      8 C         140.3567  142.3956  166.0978 C.ar    1  UNL1        0.0859
      9 C         141.3375  141.2747  165.9195 C.ar    1  UNL1        0.0354
     10 C         141.5039  140.6306  164.5751 C.ar    1  UNL1        0.0030
     11 C         142.9839  137.5773  160.3635 C.ar    1  UNL1        0.2250
     12 C         144.1203  138.3423  160.9745 C.ar    1  UNL1        0.0577
     13 C         143.9539  138.9864  162.3189 C.ar    1  UNL1        0.0063
     14 C         142.6511  138.8656  163.0523 C.ar    1  UNL1        0.0194
     15 C         141.5146  138.1006  162.4414 C.ar    1  UNL1        0.1020
     16 N         141.6810  137.4564  161.0970 N.ar    1  UNL1       -0.2101
     17 C         142.6488  137.6274  157.7877 C.3     1  UNL1        0.2542
     18 O         143.1503  136.9331  159.0192 O.3     1  UNL1       -0.4561
     19 C         139.5424  142.8723  164.9318 C.ar    1  UNL1        0.0371
     20 C         138.1110  142.4461  164.7923 C.ar    1  UNL1        0.1003
     21 N         137.2967  142.9228  163.6262 N.ar    1  UNL1       -0.2421
     22 C         137.9138  143.8258  162.5997 C.ar    1  UNL1        0.1034
     23 C         139.3452  144.2520  162.7391 C.ar    1  UNL1        0.0728
     24 C         140.1595  143.7753  163.9052 C.ar    1  UNL1        0.0091
     25 C         139.9623  145.1550  161.7125 C.2     1  UNL1        0.2506
     26 O         139.9395  146.6417  161.9106 O.2     1  UNL1       -0.2699
     27 N         140.6021  144.5713  160.4879 N.am    1  UNL1       -0.2732
     28 C         140.6249  143.0846  160.2897 C.3     1  UNL1        0.1110
     29 C         141.2647  142.5009  159.0651 C.3     1  UNL1        0.0939
     30 N         141.8818  143.4039  158.0384 N.3     1  UNL1       -0.2686
     31 C         142.5217  142.8202  156.8138 C.3     1  UNL1        0.0897
     32 C         141.8590  144.8906  158.2366 C.3     1  UNL1        0.0939
     33 C         141.2192  145.4743  159.4613 C.3     1  UNL1        0.1110
@<TRIPOS>BOND
     1    17    18    1
     2    18    11    1
     3    11    12   ar
     4    12    13   ar
     5    13    14   ar
     6    14     1    1
     7     1     2   ar
     8     2     3   ar
     9     3     4   ar
    10     4     5   ar
    11     5     6   ar
    12     6     7   ar
    13     7     8   ar
    14     8    19    1
    15    19    20   ar
    16    20    21   ar
    17    21    22   ar
    18    22    23   ar
    19    23    25    1
    20    25    26    2
    21    25    27   am
    22    27    28    1
    23    28    29    1
    24    29    30    1
    25    30    31    1
    26    30    32    1
    27    32    33    1
    28    23    24   ar
    29     8     9   ar
    30     9    10   ar
    31    14    15   ar
    32    15    16   ar
    33    16    11   ar
    34    10     1   ar
    35     9     4   ar
    36    24    19   ar
    37    33    27    1
@<TRIPOS>MOLECULE
*****
 33 37 0 0 0
SMALL
GASTEIGER

@<TRIPOS>ATOM
      1 C         143.0049  139.6495  164.2141 C.ar    1  UNL1        0.0016
      2 C         143.7385  138.7115  165.1261 C.ar    1  UNL1        0.0016
      3 C         143.4199  138.6879  166.5916 C.ar    1  UNL1        0.0192
      4 C         142.3676  139.6024  167.1452 C.ar    1  UNL1        0.0845
      5 N         142.0490  139.5788  168.6108 N.ar    1  UNL1       -0.2240
      6 C         140.9968  140.4933  169.1644 C.ar    1  UNL1        0.1988
      7 N         140.2631  141.4314  168.2523 N.ar    1  UNL1       -0.2239
      8 C         140.5818  141.4550  166.7868 C.ar    1  UNL1        0.0859
      9 C         141.6340  140.5405  166.2332 C.ar    1  UNL1        0.0354
     10 C         141.9527  140.5641  164.7677 C.ar    1  UNL1        0.0030
     11 C         143.9608  139.7204  159.8173 C.ar    1  UNL1        0.2250
     12 C         143.5385  140.9802  160.5134 C.ar    1  UNL1        0.0577
     13 C         143.2198  140.9565  161.9790 C.ar    1  UNL1        0.0063
     14 C         143.3235  139.6732  162.7485 C.ar    1  UNL1        0.0194
     15 C         143.7459  138.4134  162.0524 C.ar    1  UNL1        0.1020
     16 N         144.0645  138.4369  160.5868 N.ar    1  UNL1       -0.2101
     17 C         144.4964  141.0530  157.6524 C.3     1  UNL1        0.2542
     18 O         144.2794  139.7439  158.3517 O.3     1  UNL1       -0.4561
     19 C         139.8482  142.3931  165.8748 C.ar    1  UNL1        0.0371
     20 C         139.5746  143.8020  166.3106 C.ar    1  UNL1        0.1003
     21 N         138.8409  144.7401  165.3985 N.ar    1  UNL1       -0.2421
     22 C         138.3809  144.2693  164.0508 C.ar    1  UNL1        0.1034
     23 C         138.6545  142.8603  163.6149 C.ar    1  UNL1        0.0728
     24 C         139.3881  141.9222  164.5269 C.ar    1  UNL1        0.0091
     25 C         138.1944  142.3894  162.2671 C.2     1  UNL1        0.2506
     26 O         137.0933  141.3762  162.1622 O.2     1  UNL1       -0.2699
     27 N         138.8354  142.9318  161.0241 N.am    1  UNL1       -0.2732
     28 C         139.9364  143.9450  161.1290 C.3     1  UNL1        0.1110
     29 C         140.5774  144.4874  159.8860 C.3     1  UNL1        0.0939
     30 N         140.1173  144.0166  158.5382 N.3     1  UNL1       -0.2686
     31 C         140.7583  144.5589  157.2952 C.3     1  UNL1        0.0897
     32 C         139.0163  143.0033  158.4333 C.3     1  UNL1        0.0939
     33 C         138.3753  142.4609  159.6764 C.3     1  UNL1        0.1110
@<TRIPOS>BOND
     1    17    18    1
     2    18    11    1
     3    11    12   ar
     4    12    13   ar
     5    13    14   ar
     6    14     1    1
     7     1     2   ar
     8     2     3   ar
     9     3     4   ar
    10     4     5   ar
    11     5     6   ar
    12     6     7   ar
    13     7     8   ar
    14     8    19    1
    15    19    20   ar
    16    20    21   ar
    17    21    22   ar
    18    22    23   ar
    19    23    25    1
    20    25    26    2
    21    25    27   am
    22    27    28    1
    23    28    29    1
    24    29    30    1
    25    30    31    1
    26    30    32    1
    27    32    33    1
    28    23    24   ar
    29     8     9   ar
    30     9    10   ar
    31    14    15   ar
    32    15    16   ar
    33    16    11   ar
    34    10     1   ar
    35     9     4   ar
    36    24    19   ar
    37    33    27    1
@<TRIPOS>MOLECULE
*****
 33 37 0 0 0
SMALL
GASTEIGER

@<TRIPOS>ATOM
      1 C         139.6036  139.8860  165.9864 C.ar    1  UNL1        0.0016
      2 C         139.3759  138.4050  166.0547 C.ar    1  UNL1        0.0016
      3 C         138.8594  137.6695  164.8538 C.ar    1  UNL1        0.0192
      4 C         138.5705  138.4150  163.5846 C.ar    1  UNL1        0.0845
      5 N         138.0540  137.6794  162.3837 N.ar    1  UNL1       -0.2240
      6 C         137.7651  138.4249  161.1145 C.ar    1  UNL1        0.1988
      7 N         137.9929  139.9059  161.0463 N.ar    1  UNL1       -0.2239
      8 C         138.5094  140.6415  162.2471 C.ar    1  UNL1        0.0859
      9 C         138.7983  139.8960  163.5163 C.ar    1  UNL1        0.0354
     10 C         139.3148  140.6315  164.7172 C.ar    1  UNL1        0.0030
     11 C         141.1534  142.0927  169.5890 C.ar    1  UNL1        0.2250
     12 C         139.9935  141.1518  169.7276 C.ar    1  UNL1        0.0577
     13 C         139.4769  140.4162  168.5266 C.ar    1  UNL1        0.0063
     14 C         140.1202  140.6216  167.1873 C.ar    1  UNL1        0.0194
     15 C         141.2801  141.5625  167.0488 C.ar    1  UNL1        0.1020
     16 N         141.7967  142.2981  168.2496 N.ar    1  UNL1       -0.2101
     17 C         143.0174  143.4858  170.7442 C.3     1  UNL1        0.2542
     18 O         141.6700  142.8283  170.7899 O.3     1  UNL1       -0.4561
     19 C         138.7372  142.1225  162.1788 C.ar    1  UNL1        0.0371
     20 C         137.8068  143.0580  162.8923 C.ar    1  UNL1        0.1003
     21 N         138.0345  144.5391  162.8240 N.ar    1  UNL1       -0.2421
     22 C         139.1926  145.0846  162.0422 C.ar    1  UNL1        0.1034
     23 C         140.1230  144.1490  161.3287 C.ar    1  UNL1        0.0728
     24 C         139.8953  142.6680  161.3970 C.ar    1  UNL1        0.0091
     25 C         141.2812  144.6945  160.5469 C.2     1  UNL1        0.2506
     26 O         142.5866  144.9686  161.2330 O.2     1  UNL1       -0.2699
     27 N         141.1339  144.9658  159.0790 N.am    1  UNL1       -0.2732
     28 C         139.8285  144.6917  158.3929 C.3     1  UNL1        0.1110
     29 C         139.6812  144.9630  156.9251 C.3     1  UNL1        0.0939
     30 N         140.8394  145.5085  156.1433 N.3     1  UNL1       -0.2686
     31 C         140.6921  145.7799  154.6754 C.3     1  UNL1        0.0897
     32 C         142.1448  145.7827  156.8294 C.3     1  UNL1        0.0939
     33 C         142.2920  145.5113  158.2973 C.3     1  UNL1        0.1110
@<TRIPOS>BOND
     1    17    18    1
     2    18    11    1
     3    11    12   ar
     4    12    13   ar
     5    13    14   ar
     6    14     1    1
     7     1     2   ar
     8     2     3   ar
     9     3     4   ar
    10     4     5   ar
    11     5     6   ar
    12     6     7   ar
    13     7     8   ar
    14     8    19    1
    15    19    20   ar
    16    20    21   ar
    17    21    22   ar
    18    22    23   ar
    19    23    25    1
    20    25    26    2
    21    25    27   am
    22    27    28    1
    23    28    29    1
    24    29    30    1
    25    30    31    1
    26    30    32    1
    27    32    33    1
    28    23    24   ar
    29     8     9   ar
    30     9    10   ar
    31    14    15   ar
    32    15    16   ar
    33    16    11   ar
    34    10     1   ar
    35     9     4   ar
    36    24    19   ar
    37    33    27    1
@<TRIPOS>MOLECULE
*****
 33 37 0 0 0
SMALL
GASTEIGER

@<TRIPOS>ATOM
      1 C         140.6536  138.6211  162.8899 C.ar    1  UNL1        0.0016
      2 C         139.8438  137.5611  163.5758 C.ar    1  UNL1        0.0016
      3 C         139.3760  137.7696  164.9856 C.ar    1  UNL1        0.0192
      4 C         139.7179  139.0382  165.7095 C.ar    1  UNL1        0.0845
      5 N         139.2500  139.2467  167.1193 N.ar    1  UNL1       -0.2240
      6 C         139.5919  140.5152  167.8431 C.ar    1  UNL1        0.1988
      7 N         140.4018  141.5752  167.1571 N.ar    1  UNL1       -0.2239
      8 C         140.8696  141.3667  165.7473 C.ar    1  UNL1        0.0859
      9 C         140.5277  140.0981  165.0235 C.ar    1  UNL1        0.0354
     10 C         140.9956  139.8896  163.6137 C.ar    1  UNL1        0.0030
     11 C         142.0573  137.9956  158.6603 C.ar    1  UNL1        0.2250
     12 C         142.9760  137.6956  159.8075 C.ar    1  UNL1        0.0577
     13 C         142.5081  137.9041  161.2174 C.ar    1  UNL1        0.0063
     14 C         141.1216  138.4126  161.4800 C.ar    1  UNL1        0.0194
     15 C         140.2029  138.7125  160.3328 C.ar    1  UNL1        0.1020
     16 N         140.6708  138.5041  158.9230 N.ar    1  UNL1       -0.2101
     17 C         142.9439  136.4211  156.7936 C.3     1  UNL1        0.2542
     18 O         142.5252  137.7871  157.2505 O.3     1  UNL1       -0.4561
     19 C         141.6795  142.4266  165.0614 C.ar    1  UNL1        0.0371
     20 C         143.0690  142.7333  165.5357 C.ar    1  UNL1        0.1003
     21 N         143.8789  143.7934  164.8497 N.ar    1  UNL1       -0.2421
     22 C         143.2991  144.5467  163.6894 C.ar    1  UNL1        0.1034
     23 C         141.9095  144.2400  163.2150 C.ar    1  UNL1        0.0728
     24 C         141.0997  143.1800  163.9010 C.ar    1  UNL1        0.0091
     25 C         141.3298  144.9933  162.0546 C.2     1  UNL1        0.2506
     26 O         140.3736  146.1235  162.2966 O.2     1  UNL1       -0.2699
     27 N         141.7062  144.6166  160.6524 N.am    1  UNL1       -0.2732
     28 C         142.6623  143.4864  160.4105 C.3     1  UNL1        0.1110
     29 C         143.0387  143.1096  159.0082 C.3     1  UNL1        0.0939
     30 N         142.4590  143.8630  157.8478 N.3     1  UNL1       -0.2686
     31 C         142.8354  143.4862  156.4456 C.3     1  UNL1        0.0897
     32 C         141.5028  144.9931  158.0898 C.3     1  UNL1        0.0939
     33 C         141.1264  145.3699  159.4921 C.3     1  UNL1        0.1110
@<TRIPOS>BOND
     1    17    18    1
     2    18    11    1
     3    11    12   ar
     4    12    13   ar
     5    13    14   ar
     6    14     1    1
     7     1     2   ar
     8     2     3   ar
     9     3     4   ar
    10     4     5   ar
    11     5     6   ar
    12     6     7   ar
    13     7     8   ar
    14     8    19    1
    15    19    20   ar
    16    20    21   ar
    17    21    22   ar
    18    22    23   ar
    19    23    25    1
    20    25    26    2
    21    25    27   am
    22    27    28    1
    23    28    29    1
    24    29    30    1
    25    30    31    1
    26    30    32    1
    27    32    33    1
    28    23    24   ar
    29     8     9   ar
    30     9    10   ar
    31    14    15   ar
    32    15    16   ar
    33    16    11   ar
    34    10     1   ar
    35     9     4   ar
    36    24    19   ar
    37    33    27    1
@<TRIPOS>MOLECULE
*****
 33 37 0 0 0
SMALL
GASTEIGER

@<TRIPOS>ATOM
      1 C         140.5461  142.9869  166.2408 C.ar    1  UNL1        0.0016
      2 C         140.0519  143.3834  167.6004 C.ar    1  UNL1        0.0016
      3 C         140.4148  142.5593  168.8000 C.ar    1  UNL1        0.0192
      4 C         141.2719  141.3388  168.6400 C.ar    1  UNL1        0.0845
      5 N         141.6348  140.5147  169.8397 N.ar    1  UNL1       -0.2240
      6 C         142.4919  139.2941  169.6798 C.ar    1  UNL1        0.1988
      7 N         142.9861  138.8976  168.3201 N.ar    1  UNL1       -0.2239
      8 C         142.6232  139.7217  167.1205 C.ar    1  UNL1        0.0859
      9 C         141.7661  140.9423  167.2804 C.ar    1  UNL1        0.0354
     10 C         141.4032  141.7664  166.0808 C.ar    1  UNL1        0.0030
     11 C         139.4573  145.4592  162.6417 C.ar    1  UNL1        0.2250
     12 C         140.8957  145.3045  163.0381 C.ar    1  UNL1        0.0577
     13 C         141.2586  144.4803  164.2378 C.ar    1  UNL1        0.0063
     14 C         140.1832  143.8110  165.0411 C.ar    1  UNL1        0.0194
     15 C         138.7448  143.9658  164.6448 C.ar    1  UNL1        0.1020
     16 N         138.3818  144.7898  163.4451 N.ar    1  UNL1       -0.2101
     17 C         139.8929  146.1603  160.1783 C.3     1  UNL1        0.2542
     18 O         139.0944  146.2832  161.4421 O.3     1  UNL1       -0.4561
     19 C         143.1174  139.3252  165.7609 C.ar    1  UNL1        0.0371
     20 C         144.5888  139.3210  165.4695 C.ar    1  UNL1        0.1003
     21 N         145.0830  138.9245  164.1098 N.ar    1  UNL1       -0.2421
     22 C         144.1057  138.5322  163.0416 C.ar    1  UNL1        0.1034
     23 C         142.6343  138.5364  163.3330 C.ar    1  UNL1        0.0728
     24 C         142.1401  138.9329  164.6926 C.ar    1  UNL1        0.0091
     25 C         141.6570  138.1441  162.2647 C.2     1  UNL1        0.2506
     26 O         140.8558  136.8841  162.4073 O.2     1  UNL1       -0.2699
     27 N         141.4811  139.0119  161.0539 N.am    1  UNL1       -0.2732
     28 C         142.2823  140.2719  160.9113 C.3     1  UNL1        0.1110
     29 C         142.1063  141.1396  159.7006 C.3     1  UNL1        0.0939
     30 N         141.1290  140.7473  158.6323 N.3     1  UNL1       -0.2686
     31 C         140.9530  141.6150  157.4215 C.3     1  UNL1        0.0897
     32 C         140.3278  139.4873  158.7749 C.3     1  UNL1        0.0939
     33 C         140.5038  138.6195  159.9857 C.3     1  UNL1        0.1110
@<TRIPOS>BOND
     1    17    18    1
     2    18    11    1
     3    11    12   ar
     4    12    13   ar
     5    13    14   ar
     6    14     1    1
     7     1     2   ar
     8     2     3   ar
     9     3     4   ar
    10     4     5   ar
    11     5     6   ar
    12     6     7   ar
    13     7     8   ar
    14     8    19    1
    15    19    20   ar
    16    20    21   ar
    17    21    22   ar
    18    22    23   ar
    19    23    25    1
    20    25    26    2
    21    25    27   am
    22    27    28    1
    23    28    29    1
    24    29    30    1
    25    30    31    1
    26    30    32    1
    27    32    33    1
    28    23    24   ar
    29     8     9   ar
    30     9    10   ar
    31    14    15   ar
    32    15    16   ar
    33    16    11   ar
    34    10     1   ar
    35     9     4   ar
    36    24    19   ar
    37    33    27    1
@<TRIPOS>MOLECULE
*****
 33 37 0 0 0
SMALL
GASTEIGER

@<TRIPOS>ATOM
      1 C         140.8159  136.9045  155.9611 C.ar    1  UNL1        0.0016
      2 C         140.1907  137.3973  154.6898 C.ar    1  UNL1        0.0016
      3 C         139.2604  138.5736  154.7185 C.ar    1  UNL1        0.0192
      4 C         138.9552  139.2569  156.0185 C.ar    1  UNL1        0.0845
      5 N         138.0248  140.4332  156.0472 N.ar    1  UNL1       -0.2240
      6 C         137.7196  141.1165  157.3472 C.ar    1  UNL1        0.1988
      7 N         138.3449  140.6236  158.6185 N.ar    1  UNL1       -0.2239
      8 C         139.2753  139.4474  158.5897 C.ar    1  UNL1        0.0859
      9 C         139.5804  138.7640  157.2898 C.ar    1  UNL1        0.0354
     10 C         140.5108  137.5878  157.2610 C.ar    1  UNL1        0.0030
     11 C         143.6072  133.3757  155.8751 C.ar    1  UNL1        0.2250
     12 C         142.4332  133.4263  154.9427 C.ar    1  UNL1        0.0577
     13 C         141.5028  134.6025  154.9714 C.ar    1  UNL1        0.0063
     14 C         141.7464  135.7282  155.9324 C.ar    1  UNL1        0.0194
     15 C         142.9203  135.6776  156.8647 C.ar    1  UNL1        0.1020
     16 N         143.8507  134.5014  156.8361 N.ar    1  UNL1       -0.2101
     17 C         145.0257  131.5979  157.1309 C.3     1  UNL1        0.2542
     18 O         144.5376  132.1995  155.8464 O.3     1  UNL1       -0.4561
     19 C         139.9005  138.9545  159.8610 C.ar    1  UNL1        0.0371
     20 C         139.1042  138.1081  160.8094 C.ar    1  UNL1        0.1003
     21 N         139.7295  137.6152  162.0807 N.ar    1  UNL1       -0.2421
     22 C         141.1510  137.9687  162.4035 C.ar    1  UNL1        0.1034
     23 C         141.9473  138.8151  161.4551 C.ar    1  UNL1        0.0728
     24 C         141.3221  139.3079  160.1839 C.ar    1  UNL1        0.0091
     25 C         143.3689  139.1685  161.7780 C.2     1  UNL1        0.2506
     26 O         144.4931  138.3733  161.1831 O.2     1  UNL1       -0.2699
     27 N         143.6663  140.3172  162.6957 N.am    1  UNL1       -0.2732
     28 C         142.5421  141.1124  163.2905 C.3     1  UNL1        0.1110
     29 C         142.8394  142.2610  164.2082 C.3     1  UNL1        0.0939
     30 N         144.2610  142.6145  164.5311 N.3     1  UNL1       -0.2686
     31 C         144.5584  143.7631  165.4488 C.3     1  UNL1        0.0897
     32 C         145.3852  141.8193  163.9362 C.3     1  UNL1        0.0939
     33 C         145.0878  140.6706  163.0185 C.3     1  UNL1        0.1110
@<TRIPOS>BOND
     1    17    18    1
     2    18    11    1
     3    11    12   ar
     4    12    13   ar
     5    13    14   ar
     6    14     1    1
     7     1     2   ar
     8     2     3   ar
     9     3     4   ar
    10     4     5   ar
    11     5     6   ar
    12     6     7   ar
    13     7     8   ar
    14     8    19    1
    15    19    20   ar
    16    20    21   ar
    17    21    22   ar
    18    22    23   ar
    19    23    25    1
    20    25    26    2
    21    25    27   am
    22    27    28    1
    23    28    29    1
    24    29    30    1
    25    30    31    1
    26    30    32    1
    27    32    33    1
    28    23    24   ar
    29     8     9   ar
    30     9    10   ar
    31    14    15   ar
    32    15    16   ar
    33    16    11   ar
    34    10     1   ar
    35     9     4   ar
    36    24    19   ar
    37    33    27    1
