@<TRIPOS>MOLECULE
*****
 35 38 0 0 0
SMALL
GASTEIGER

@<TRIPOS>ATOM
      1 N         140.5550  144.6308  162.4508 N.am    1  UNL1       -0.2657
      2 C         140.2225  145.4990  161.2736 C.2     1  UNL1        0.2493
      3 O         139.2172  146.6121  161.2550 O.2     1  UNL1       -0.2699
      4 C         141.0719  145.0587  160.1183 C.ar    1  UNL1        0.0516
      5 C         141.1754  145.5488  158.7044 C.ar    1  UNL1        0.0043
      6 C         142.1362  144.8986  157.7537 C.ar    1  UNL1        0.0001
      7 C         142.9936  143.7582  158.2169 C.ar    1  UNL1       -0.0003
      8 C         142.8902  143.2681  159.6307 C.ar    1  UNL1       -0.0021
      9 C         141.9293  143.9184  160.5815 C.ar    1  UNL1        0.0089
     10 C         141.6098  143.6540  162.0230 C.3     1  UNL1        0.1751
     11 C         142.2354  142.5980  162.8853 C.2     1  UNL1        0.2451
     12 O         141.7274  141.1877  162.8316 O.2     1  UNL1       -0.2729
     13 N         143.3691  142.9524  163.8015 N.am    1  UNL1       -0.2988
     14 H         143.7026  143.8780  163.8368 H       1  UNL1        0.1498
     15 C         143.9947  141.8964  164.6638 C.3     1  UNL1        0.1164
     16 C         143.2514  141.3607  165.8514 C.ar    1  UNL1       -0.0024
     17 C         142.7133  142.3031  166.8869 C.ar    1  UNL1        0.0005
     18 C         141.9699  141.7674  168.0747 C.ar    1  UNL1        0.0369
     19 C         141.7647  140.2893  168.2268 C.ar    1  UNL1        0.1468
     20 C         142.3029  139.3469  167.1912 C.ar    1  UNL1        0.0369
     21 C         143.0462  139.8826  166.0036 C.ar    1  UNL1        0.0005
     22 O         141.0215  139.7536  169.4144 O.3     1  UNL1       -0.4045
     23 C         139.7039  140.3531  169.8074 C.3     1  UNL1        0.5753
     24 F         138.3862  140.9527  170.2004 F       1  UNL1       -0.1328
     25 F         139.0524  139.6951  168.6273 F       1  UNL1       -0.1328
     26 F         140.3553  141.0111  170.9875 F       1  UNL1       -0.1328
     27 C         139.9405  144.7233  163.8160 C.3     1  UNL1        0.1007
     28 C         138.6838  143.9652  164.1258 C.3     1  UNL1        0.0673
     29 C         137.7657  139.3799  161.8604 C.3     1  UNL1        0.0521
     30 C         138.2453  140.1734  163.0394 C.ar    1  UNL1        0.0590
     31 C         138.7456  139.4678  164.2649 C.ar    1  UNL1        0.0147
     32 C         139.2252  140.2613  165.4441 C.ar    1  UNL1        0.0024
     33 C         139.2047  141.7604  165.3977 C.ar    1  UNL1        0.0148
     34 C         138.7044  142.4660  164.1721 C.ar    1  UNL1        0.0603
     35 N         138.2248  141.6726  162.9931 N.ar    1  UNL1       -0.2539
@<TRIPOS>BOND
     1    29    30    1
     2    30    31   ar
     3    31    32   ar
     4    32    33   ar
     5    33    34   ar
     6    34    28    1
     7    28    27    1
     8    27     1    1
     9     1     2   am
    10     2     3    2
    11     2     4    1
    12     4     5   ar
    13     5     6   ar
    14     6     7   ar
    15     7     8   ar
    16     8     9   ar
    17     9    10    1
    18    10    11    1
    19    11    12    2
    20    11    13   am
    21    13    15    1
    22    15    16    1
    23    16    17   ar
    24    17    18   ar
    25    18    19   ar
    26    19    22    1
    27    22    23    1
    28    23    24    1
    29    23    25    1
    30    23    26    1
    31    19    20   ar
    32    20    21   ar
    33    34    35   ar
    34    35    30   ar
    35    10     1    1
    36    21    16   ar
    37     9     4   ar
    38    13    14    1
@<TRIPOS>MOLECULE
*****
 35 38 0 0 0
SMALL
GASTEIGER

@<TRIPOS>ATOM
      1 N         140.1805  139.9884  166.9647 N.am    1  UNL1       -0.2657
      2 C         139.8200  140.1036  168.4162 C.2     1  UNL1        0.2493
      3 O         138.6284  139.4804  169.0809 O.2     1  UNL1       -0.2699
      4 C         140.8603  140.9514  169.0863 C.ar    1  UNL1        0.0516
      5 C         141.0235  141.4040  170.5070 C.ar    1  UNL1        0.0043
      6 C         142.1901  142.2653  170.8904 C.ar    1  UNL1        0.0001
      7 C         143.1935  142.6741  169.8531 C.ar    1  UNL1       -0.0003
      8 C         143.0303  142.2215  168.4324 C.ar    1  UNL1       -0.0021
      9 C         141.8637  141.3601  168.0490 C.ar    1  UNL1        0.0089
     10 C         141.4435  140.7650  166.7378 C.3     1  UNL1        0.1751
     11 C         142.1606  140.9193  165.4293 C.2     1  UNL1        0.2451
     12 O         143.4680  140.2197  165.2035 O.2     1  UNL1       -0.2729
     13 N         141.5702  141.7734  164.3467 N.am    1  UNL1       -0.2988
     14 H         140.7120  142.2326  164.4949 H       1  UNL1        0.1498
     15 C         142.2873  141.9277  163.0382 C.3     1  UNL1        0.1164
     16 C         141.7462  142.8559  161.9915 C.ar    1  UNL1       -0.0024
     17 C         141.7067  144.3334  162.2475 C.ar    1  UNL1        0.0005
     18 C         141.1657  145.2617  161.2007 C.ar    1  UNL1        0.0369
     19 C         140.6641  144.7126  159.8981 C.ar    1  UNL1        0.1468
     20 C         140.7037  143.2350  159.6422 C.ar    1  UNL1        0.0369
     21 C         141.2447  142.3067  160.6889 C.ar    1  UNL1        0.0005
     22 O         140.1231  145.6408  158.8514 O.3     1  UNL1       -0.4045
     23 C         140.7524  145.6847  157.4904 C.3     1  UNL1        0.5753
     24 F         141.3816  145.7287  156.1295 F       1  UNL1       -0.1328
     25 F         142.0195  146.2147  158.0934 F       1  UNL1       -0.1328
     26 F         139.4852  145.1547  156.8874 F       1  UNL1       -0.1328
     27 C         139.4127  139.2297  165.9231 C.3     1  UNL1        0.1007
     28 C         138.1202  139.7788  165.3959 C.3     1  UNL1        0.0673
     29 C         138.9040  144.8612  164.6513 C.3     1  UNL1        0.0521
     30 C         138.5192  143.5140  164.1156 C.ar    1  UNL1        0.0590
     31 C         138.1416  143.3608  162.6721 C.ar    1  UNL1        0.0147
     32 C         137.7568  142.0135  162.1364 C.ar    1  UNL1        0.0024
     33 C         137.7497  140.8195  163.0443 C.ar    1  UNL1        0.0148
     34 C         138.1273  140.9728  164.4879 C.ar    1  UNL1        0.0603
     35 N         138.5121  142.3200  165.0236 N.ar    1  UNL1       -0.2539
@<TRIPOS>BOND
     1    29    30    1
     2    30    31   ar
     3    31    32   ar
     4    32    33   ar
     5    33    34   ar
     6    34    28    1
     7    28    27    1
     8    27     1    1
     9     1     2   am
    10     2     3    2
    11     2     4    1
    12     4     5   ar
    13     5     6   ar
    14     6     7   ar
    15     7     8   ar
    16     8     9   ar
    17     9    10    1
    18    10    11    1
    19    11    12    2
    20    11    13   am
    21    13    15    1
    22    15    16    1
    23    16    17   ar
    24    17    18   ar
    25    18    19   ar
    26    19    22    1
    27    22    23    1
    28    23    24    1
    29    23    25    1
    30    23    26    1
    31    19    20   ar
    32    20    21   ar
    33    34    35   ar
    34    35    30   ar
    35    10     1    1
    36    21    16   ar
    37     9     4   ar
    38    13    14    1
@<TRIPOS>MOLECULE
*****
 35 38 0 0 0
SMALL
GASTEIGER

@<TRIPOS>ATOM
      1 N         140.9651  144.8826  162.5415 N.am    1  UNL1       -0.2657
      2 C         140.3484  145.5321  161.3382 C.2     1  UNL1        0.2493
      3 O         139.2441  146.5471  161.3529 O.2     1  UNL1       -0.2699
      4 C         141.0299  144.9883  160.1175 C.ar    1  UNL1        0.0516
      5 C         140.8394  145.2632  158.6553 C.ar    1  UNL1        0.0043
      6 C         141.6868  144.5525  157.6420 C.ar    1  UNL1        0.0001
      7 C         142.7247  143.5670  158.0909 C.ar    1  UNL1       -0.0003
      8 C         142.9152  143.2921  159.5531 C.ar    1  UNL1       -0.0021
      9 C         142.0677  144.0027  160.5664 C.ar    1  UNL1        0.0089
     10 C         142.0277  143.9374  162.0645 C.3     1  UNL1        0.1751
     11 C         142.8976  143.0779  162.9331 C.2     1  UNL1        0.2451
     12 O         144.2664  143.5499  163.3247 O.2     1  UNL1       -0.2729
     13 N         142.3985  141.7461  163.4101 N.am    1  UNL1       -0.2988
     14 H         141.5001  141.4362  163.1532 H       1  UNL1        0.1498
     15 C         143.2684  140.8865  164.2787 C.3     1  UNL1        0.1164
     16 C         143.0417  140.8461  165.7609 C.ar    1  UNL1       -0.0024
     17 C         142.9018  139.5277  166.4625 C.ar    1  UNL1        0.0005
     18 C         142.6750  139.4873  167.9448 C.ar    1  UNL1        0.0369
     19 C         142.5882  140.7652  168.7254 C.ar    1  UNL1        0.1468
     20 C         142.7281  142.0836  168.0237 C.ar    1  UNL1        0.0369
     21 C         142.9548  142.1241  166.5415 C.ar    1  UNL1        0.0005
     22 O         142.3614  140.7249  170.2076 O.3     1  UNL1       -0.4045
     23 C         141.2665  141.5461  170.8214 C.3     1  UNL1        0.5753
     24 F         140.1716  142.3674  171.4352 F       1  UNL1       -0.1328
     25 F         140.2561  140.8338  169.9720 F       1  UNL1       -0.1328
     26 F         142.2770  142.2585  171.6708 F       1  UNL1       -0.1328
     27 C         140.5858  145.1342  163.9707 C.3     1  UNL1        0.1007
     28 C         139.2365  144.7143  164.4737 C.3     1  UNL1        0.0673
     29 C         139.3176  139.8645  166.3371 C.3     1  UNL1        0.0521
     30 C         138.8542  140.8534  165.3089 C.ar    1  UNL1        0.0590
     31 C         137.9680  140.4065  164.1843 C.ar    1  UNL1        0.0147
     32 C         137.5045  141.3955  163.1561 C.ar    1  UNL1        0.0024
     33 C         137.9274  142.8314  163.2525 C.ar    1  UNL1        0.0148
     34 C         138.8137  143.2784  164.3772 C.ar    1  UNL1        0.0603
     35 N         139.2771  142.2894  165.4054 N.ar    1  UNL1       -0.2539
@<TRIPOS>BOND
     1    29    30    1
     2    30    31   ar
     3    31    32   ar
     4    32    33   ar
     5    33    34   ar
     6    34    28    1
     7    28    27    1
     8    27     1    1
     9     1     2   am
    10     2     3    2
    11     2     4    1
    12     4     5   ar
    13     5     6   ar
    14     6     7   ar
    15     7     8   ar
    16     8     9   ar
    17     9    10    1
    18    10    11    1
    19    11    12    2
    20    11    13   am
    21    13    15    1
    22    15    16    1
    23    16    17   ar
    24    17    18   ar
    25    18    19   ar
    26    19    22    1
    27    22    23    1
    28    23    24    1
    29    23    25    1
    30    23    26    1
    31    19    20   ar
    32    20    21   ar
    33    34    35   ar
    34    35    30   ar
    35    10     1    1
    36    21    16   ar
    37     9     4   ar
    38    13    14    1
@<TRIPOS>MOLECULE
*****
 35 38 0 0 0
SMALL
GASTEIGER

@<TRIPOS>ATOM
      1 N         140.5942  144.3926  161.0756 N.am    1  UNL1       -0.2657
      2 C         140.9280  144.6289  159.6324 C.2     1  UNL1        0.2493
      3 O         141.9725  145.5713  159.1119 O.2     1  UNL1       -0.2699
      4 C         140.0339  143.7573  158.8011 C.ar    1  UNL1        0.0516
      5 C         139.9124  143.5693  157.3179 C.ar    1  UNL1        0.0043
      6 C         138.9045  142.6062  156.7642 C.ar    1  UNL1        0.0001
      7 C         138.0181  141.8313  157.6936 C.ar    1  UNL1       -0.0003
      8 C         138.1396  142.0194  159.1767 C.ar    1  UNL1       -0.0021
      9 C         139.1475  142.9824  159.7305 C.ar    1  UNL1        0.0089
     10 C         139.4938  143.3751  161.1362 C.3     1  UNL1        0.1751
     11 C         138.8522  142.8434  162.3835 C.2     1  UNL1        0.2451
     12 O         137.7453  143.6110  163.0433 O.2     1  UNL1       -0.2729
     13 N         139.3177  141.5441  162.9711 N.am    1  UNL1       -0.2988
     14 H         140.0443  141.0403  162.5381 H       1  UNL1        0.1498
     15 C         138.6762  141.0124  164.2184 C.3     1  UNL1        0.1164
     16 C         139.3582  141.1825  165.5435 C.ar    1  UNL1       -0.0024
     17 C         139.8776  142.5290  165.9523 C.ar    1  UNL1        0.0005
     18 C         140.5597  142.6991  167.2775 C.ar    1  UNL1        0.0369
     19 C         140.7224  141.5227  168.1937 C.ar    1  UNL1        0.1468
     20 C         140.2030  140.1762  167.7848 C.ar    1  UNL1        0.0369
     21 C         139.5209  140.0061  166.4597 C.ar    1  UNL1        0.0005
     22 O         141.4044  141.6927  169.5188 O.3     1  UNL1       -0.4045
     23 C         142.8434  142.1125  169.5732 C.3     1  UNL1        0.5753
     24 F         144.2825  142.5323  169.6275 F       1  UNL1       -0.1328
     25 F         143.2598  140.7435  169.1233 F       1  UNL1       -0.1328
     26 F         142.4271  143.4816  170.0230 F       1  UNL1       -0.1328
     27 C         141.2462  145.0572  162.2516 C.3     1  UNL1        0.1007
     28 C         142.6534  144.7007  162.6295 C.3     1  UNL1        0.0673
     29 C         142.2462  139.6431  163.7491 C.3     1  UNL1        0.0521
     30 C         142.7088  141.0217  164.1167 C.ar    1  UNL1        0.0590
     31 C         143.4306  141.2502  165.4116 C.ar    1  UNL1        0.0147
     32 C         143.8933  142.6290  165.7792 C.ar    1  UNL1        0.0024
     33 C         143.6342  143.7791  164.8518 C.ar    1  UNL1        0.0148
     34 C         142.9124  143.5506  163.5569 C.ar    1  UNL1        0.0603
     35 N         142.4498  142.1719  163.1893 N.ar    1  UNL1       -0.2539
@<TRIPOS>BOND
     1    29    30    1
     2    30    31   ar
     3    31    32   ar
     4    32    33   ar
     5    33    34   ar
     6    34    28    1
     7    28    27    1
     8    27     1    1
     9     1     2   am
    10     2     3    2
    11     2     4    1
    12     4     5   ar
    13     5     6   ar
    14     6     7   ar
    15     7     8   ar
    16     8     9   ar
    17     9    10    1
    18    10    11    1
    19    11    12    2
    20    11    13   am
    21    13    15    1
    22    15    16    1
    23    16    17   ar
    24    17    18   ar
    25    18    19   ar
    26    19    22    1
    27    22    23    1
    28    23    24    1
    29    23    25    1
    30    23    26    1
    31    19    20   ar
    32    20    21   ar
    33    34    35   ar
    34    35    30   ar
    35    10     1    1
    36    21    16   ar
    37     9     4   ar
    38    13    14    1
@<TRIPOS>MOLECULE
*****
 35 38 0 0 0
SMALL
GASTEIGER

@<TRIPOS>ATOM
      1 N         139.3219  139.3101  160.5658 N.am    1  UNL1       -0.2657
      2 C         139.6032  139.0981  159.1077 C.2     1  UNL1        0.2493
      3 O         140.0224  137.8071  158.4693 O.2     1  UNL1       -0.2699
      4 C         139.3918  140.4037  158.4002 C.ar    1  UNL1        0.0516
      5 C         139.5212  140.7964  156.9583 C.ar    1  UNL1        0.0043
      6 C         139.2386  142.2080  156.5372 C.ar    1  UNL1        0.0001
      7 C         138.8265  143.2269  157.5580 C.ar    1  UNL1       -0.0003
      8 C         138.6971  142.8343  158.9998 C.ar    1  UNL1       -0.0021
      9 C         138.9797  141.4226  159.4209 C.ar    1  UNL1        0.0089
     10 C         138.9365  140.7467  160.7593 C.3     1  UNL1        0.1751
     11 C         138.5720  141.3939  162.0625 C.2     1  UNL1        0.2451
     12 O         137.1301  141.5474  162.4463 O.2     1  UNL1       -0.2729
     13 N         139.6494  141.8878  162.9820 N.am    1  UNL1       -0.2988
     14 H         140.5958  141.7871  162.7301 H       1  UNL1        0.1498
     15 C         139.2849  142.5350  164.2851 C.3     1  UNL1        0.1164
     16 C         139.5445  141.8182  165.5769 C.ar    1  UNL1       -0.0024
     17 C         138.9797  140.4467  165.8002 C.ar    1  UNL1        0.0005
     18 C         139.2393  139.7298  167.0921 C.ar    1  UNL1        0.0369
     19 C         140.0637  140.3844  168.1605 C.ar    1  UNL1        0.1468
     20 C         140.6286  141.7560  167.9372 C.ar    1  UNL1        0.0369
     21 C         140.3690  142.4728  166.6454 C.ar    1  UNL1        0.0005
     22 O         140.3234  139.6676  169.4523 O.3     1  UNL1       -0.4045
     23 C         141.6634  139.7812  170.1168 C.3     1  UNL1        0.5753
     24 F         143.0034  139.8947  170.7813 F       1  UNL1       -0.1328
     25 F         141.0371  140.5382  171.2503 F       1  UNL1       -0.1328
     26 F         142.2896  139.0242  168.9833 F       1  UNL1       -0.1328
     27 C         139.4103  138.2683  161.6414 C.3     1  UNL1        0.1007
     28 C         140.7507  137.7745  162.0988 C.3     1  UNL1        0.0673
     29 C         143.1402  141.9496  164.0632 C.3     1  UNL1        0.0521
     30 C         142.6466  140.5418  164.2195 C.ar    1  UNL1        0.0590
     31 C         142.8543  139.8137  165.5144 C.ar    1  UNL1        0.0147
     32 C         142.3608  138.4058  165.6708 C.ar    1  UNL1        0.0024
     33 C         141.6596  137.7261  164.5323 C.ar    1  UNL1        0.0148
     34 C         141.4519  138.4542  163.2373 C.ar    1  UNL1        0.0603
     35 N         141.9455  139.8620  163.0810 N.ar    1  UNL1       -0.2539
@<TRIPOS>BOND
     1    29    30    1
     2    30    31   ar
     3    31    32   ar
     4    32    33   ar
     5    33    34   ar
     6    34    28    1
     7    28    27    1
     8    27     1    1
     9     1     2   am
    10     2     3    2
    11     2     4    1
    12     4     5   ar
    13     5     6   ar
    14     6     7   ar
    15     7     8   ar
    16     8     9   ar
    17     9    10    1
    18    10    11    1
    19    11    12    2
    20    11    13   am
    21    13    15    1
    22    15    16    1
    23    16    17   ar
    24    17    18   ar
    25    18    19   ar
    26    19    22    1
    27    22    23    1
    28    23    24    1
    29    23    25    1
    30    23    26    1
    31    19    20   ar
    32    20    21   ar
    33    34    35   ar
    34    35    30   ar
    35    10     1    1
    36    21    16   ar
    37     9     4   ar
    38    13    14    1
@<TRIPOS>MOLECULE
*****
 35 38 0 0 0
SMALL
GASTEIGER

@<TRIPOS>ATOM
      1 N         139.5112  142.1034  160.8014 N.am    1  UNL1       -0.2657
      2 C         138.9397  142.0575  159.4153 C.2     1  UNL1        0.2493
      3 O         138.0211  141.0020  158.8748 O.2     1  UNL1       -0.2699
      4 C         139.4480  143.2525  158.6645 C.ar    1  UNL1        0.0516
      5 C         139.2188  143.7276  157.2603 C.ar    1  UNL1        0.0043
      6 C         139.8752  144.9872  156.7782 C.ar    1  UNL1        0.0001
      7 C         140.7609  145.7717  157.7003 C.ar    1  UNL1       -0.0003
      8 C         140.9901  145.2966  159.1045 C.ar    1  UNL1       -0.0021
      9 C         140.3336  144.0370  159.5865 C.ar    1  UNL1        0.0089
     10 C         140.3727  143.3268  160.9072 C.3     1  UNL1        0.1751
     11 C         141.1388  143.7634  162.1207 C.2     1  UNL1        0.2451
     12 O         140.8351  145.0837  162.7645 O.2     1  UNL1       -0.2729
     13 N         142.2086  142.8796  162.6904 N.am    1  UNL1       -0.2988
     14 H         142.4079  142.0130  162.2678 H       1  UNL1        0.1498
     15 C         142.9747  143.3162  163.9039 C.3     1  UNL1        0.1164
     16 C         142.4967  142.9291  165.2719 C.ar    1  UNL1       -0.0024
     17 C         141.0265  142.8679  165.5631 C.ar    1  UNL1        0.0005
     18 C         140.5483  142.4807  166.9312 C.ar    1  UNL1        0.0369
     19 C         141.5404  142.1548  168.0080 C.ar    1  UNL1        0.1468
     20 C         143.0106  142.2160  167.7167 C.ar    1  UNL1        0.0369
     21 C         143.4887  142.6031  166.3487 C.ar    1  UNL1        0.0005
     22 O         141.0624  141.7677  169.3761 O.3     1  UNL1       -0.4045
     23 C         140.1869  142.7024  170.1569 C.3     1  UNL1        0.5753
     24 F         139.3113  143.6372  170.9377 F       1  UNL1       -0.1328
     25 F         141.2536  143.7551  170.0928 F       1  UNL1       -0.1328
     26 F         139.1202  141.6498  170.2210 F       1  UNL1       -0.1328
     27 C         139.2645  141.1019  161.8904 C.3     1  UNL1        0.1007
     28 C         140.1054  139.8626  161.9742 C.3     1  UNL1        0.0673
     29 C         144.8032  139.5744  164.1756 C.3     1  UNL1        0.0521
     30 C         143.3105  139.4732  164.2819 C.ar    1  UNL1        0.0590
     31 C         142.6739  139.1267  165.5951 C.ar    1  UNL1        0.0147
     32 C         141.1810  139.0255  165.7014 C.ar    1  UNL1        0.0024
     33 C         140.3248  139.2708  164.4944 C.ar    1  UNL1        0.0148
     34 C         140.9615  139.6173  163.1811 C.ar    1  UNL1        0.0603
     35 N         142.4543  139.7185  163.0749 N.ar    1  UNL1       -0.2539
@<TRIPOS>BOND
     1    29    30    1
     2    30    31   ar
     3    31    32   ar
     4    32    33   ar
     5    33    34   ar
     6    34    28    1
     7    28    27    1
     8    27     1    1
     9     1     2   am
    10     2     3    2
    11     2     4    1
    12     4     5   ar
    13     5     6   ar
    14     6     7   ar
    15     7     8   ar
    16     8     9   ar
    17     9    10    1
    18    10    11    1
    19    11    12    2
    20    11    13   am
    21    13    15    1
    22    15    16    1
    23    16    17   ar
    24    17    18   ar
    25    18    19   ar
    26    19    22    1
    27    22    23    1
    28    23    24    1
    29    23    25    1
    30    23    26    1
    31    19    20   ar
    32    20    21   ar
    33    34    35   ar
    34    35    30   ar
    35    10     1    1
    36    21    16   ar
    37     9     4   ar
    38    13    14    1
@<TRIPOS>MOLECULE
*****
 35 38 0 0 0
SMALL
GASTEIGER

@<TRIPOS>ATOM
      1 N         138.7779  140.9932  160.0507 N.am    1  UNL1       -0.2657
      2 C         139.3716  141.7928  158.9290 C.2     1  UNL1        0.2493
      3 O         139.5804  141.3175  157.5217 O.2     1  UNL1       -0.2699
      4 C         139.7198  143.1511  159.4616 C.ar    1  UNL1        0.0516
      5 C         140.3325  144.3568  158.8129 C.ar    1  UNL1        0.0043
      6 C         140.5668  145.6024  159.6151 C.ar    1  UNL1        0.0001
      7 C         140.1883  145.6423  161.0660 C.ar    1  UNL1       -0.0003
      8 C         139.5756  144.4367  161.7147 C.ar    1  UNL1       -0.0021
      9 C         139.3413  143.1911  160.9125 C.ar    1  UNL1        0.0089
     10 C         138.7592  141.8574  161.2766 C.3     1  UNL1        0.1751
     11 C         138.2481  141.4581  162.6291 C.2     1  UNL1        0.2451
     12 O         136.9266  141.9755  163.1143 O.2     1  UNL1       -0.2729
     13 N         139.0588  140.5412  163.4965 N.am    1  UNL1       -0.2988
     14 H         139.9263  140.2015  163.1781 H       1  UNL1        0.1498
     15 C         138.5477  140.1419  164.8491 C.3     1  UNL1        0.1164
     16 C         139.2861  140.5644  166.0845 C.ar    1  UNL1       -0.0024
     17 C         140.0576  141.8507  166.0939 C.ar    1  UNL1        0.0005
     18 C         140.7960  142.2734  167.3294 C.ar    1  UNL1        0.0369
     19 C         140.7628  141.4097  168.5553 C.ar    1  UNL1        0.1468
     20 C         139.9912  140.1233  168.5458 C.ar    1  UNL1        0.0369
     21 C         139.2529  139.7007  167.3104 C.ar    1  UNL1        0.0005
     22 O         141.5012  141.8322  169.7907 O.3     1  UNL1       -0.4045
     23 C         142.9530  142.2002  169.7077 C.3     1  UNL1        0.5753
     24 F         144.4047  142.5683  169.6247 F       1  UNL1       -0.1328
     25 F         142.6489  143.5371  170.3163 F       1  UNL1       -0.1328
     26 F         143.2571  140.8634  169.0992 F       1  UNL1       -0.1328
     27 C         138.2889  139.5779  159.9621 C.3     1  UNL1        0.1007
     28 C         139.2710  138.4519  159.8301 C.3     1  UNL1        0.0673
     29 C         141.0239  137.1521  164.5458 C.3     1  UNL1        0.0521
     30 C         141.2797  137.6761  163.1638 C.ar    1  UNL1        0.0590
     31 C         142.6677  138.0742  162.7576 C.ar    1  UNL1        0.0147
     32 C         142.9235  138.5982  161.3756 C.ar    1  UNL1        0.0024
     33 C         141.7913  138.7241  160.3997 C.ar    1  UNL1        0.0148
     34 C         140.4032  138.3260  160.8060 C.ar    1  UNL1        0.0603
     35 N         140.1475  137.8020  162.1880 N.ar    1  UNL1       -0.2539
@<TRIPOS>BOND
     1    29    30    1
     2    30    31   ar
     3    31    32   ar
     4    32    33   ar
     5    33    34   ar
     6    34    28    1
     7    28    27    1
     8    27     1    1
     9     1     2   am
    10     2     3    2
    11     2     4    1
    12     4     5   ar
    13     5     6   ar
    14     6     7   ar
    15     7     8   ar
    16     8     9   ar
    17     9    10    1
    18    10    11    1
    19    11    12    2
    20    11    13   am
    21    13    15    1
    22    15    16    1
    23    16    17   ar
    24    17    18   ar
    25    18    19   ar
    26    19    22    1
    27    22    23    1
    28    23    24    1
    29    23    25    1
    30    23    26    1
    31    19    20   ar
    32    20    21   ar
    33    34    35   ar
    34    35    30   ar
    35    10     1    1
    36    21    16   ar
    37     9     4   ar
    38    13    14    1
@<TRIPOS>MOLECULE
*****
 35 38 0 0 0
SMALL
GASTEIGER

@<TRIPOS>ATOM
      1 N         139.0518  139.6510  161.1626 N.am    1  UNL1       -0.2657
      2 C         138.6908  139.5226  159.7124 C.2     1  UNL1        0.2493
      3 O         137.3618  139.8557  159.1017 O.2     1  UNL1       -0.2699
      4 C         139.8921  139.0027  158.9799 C.ar    1  UNL1        0.0516
      5 C         140.1238  138.6800  157.5335 C.ar    1  UNL1        0.0043
      6 C         141.4589  138.1643  157.0847 C.ar    1  UNL1        0.0001
      7 C         142.5624  137.9714  158.0823 C.ar    1  UNL1       -0.0003
      8 C         142.3307  138.2940  159.5287 C.ar    1  UNL1       -0.0021
      9 C         140.9956  138.8097  159.9775 C.ar    1  UNL1        0.0089
     10 C         140.4762  139.2104  161.3265 C.3     1  UNL1        0.1751
     11 C         141.2461  139.1764  162.6134 C.2     1  UNL1        0.2451
     12 O         142.3288  140.1831  162.8664 O.2     1  UNL1       -0.2729
     13 N         140.9332  138.1356  163.6473 N.am    1  UNL1       -0.2988
     14 H         140.2226  137.4748  163.4813 H       1  UNL1        0.1498
     15 C         141.7032  138.1016  164.9342 C.3     1  UNL1        0.1164
     16 C         141.2955  138.9854  166.0755 C.ar    1  UNL1       -0.0024
     17 C         139.8656  139.4161  166.2168 C.ar    1  UNL1        0.0005
     18 C         139.4578  140.2999  167.3582 C.ar    1  UNL1        0.0369
     19 C         140.4798  140.7529  168.3583 C.ar    1  UNL1        0.1468
     20 C         141.9097  140.3221  168.2169 C.ar    1  UNL1        0.0369
     21 C         142.3175  139.4384  167.0756 C.ar    1  UNL1        0.0005
     22 O         140.0721  141.6367  169.4996 O.3     1  UNL1       -0.4045
     23 C         140.8571  142.8780  169.8044 C.3     1  UNL1        0.5753
     24 F         141.6421  144.1194  170.1092 F       1  UNL1       -0.1328
     25 F         141.5250  142.1747  170.9487 F       1  UNL1       -0.1328
     26 F         140.1892  143.5813  168.6602 F       1  UNL1       -0.1328
     27 C         138.1472  140.1351  162.2569 C.3     1  UNL1        0.1007
     28 C         137.7808  141.5872  162.3397 C.3     1  UNL1        0.0673
     29 C         141.8142  142.7476  165.4032 C.3     1  UNL1        0.0521
     30 C         140.4262  143.0411  164.9161 C.ar    1  UNL1        0.0590
     31 C         139.6669  144.2084  165.4737 C.ar    1  UNL1        0.0147
     32 C         138.2789  144.5020  164.9867 C.ar    1  UNL1        0.0024
     33 C         137.6501  143.6282  163.9420 C.ar    1  UNL1        0.0148
     34 C         138.4095  142.4609  163.3844 C.ar    1  UNL1        0.0603
     35 N         139.7975  142.1674  163.8714 N.ar    1  UNL1       -0.2539
@<TRIPOS>BOND
     1    29    30    1
     2    30    31   ar
     3    31    32   ar
     4    32    33   ar
     5    33    34   ar
     6    34    28    1
     7    28    27    1
     8    27     1    1
     9     1     2   am
    10     2     3    2
    11     2     4    1
    12     4     5   ar
    13     5     6   ar
    14     6     7   ar
    15     7     8   ar
    16     8     9   ar
    17     9    10    1
    18    10    11    1
    19    11    12    2
    20    11    13   am
    21    13    15    1
    22    15    16    1
    23    16    17   ar
    24    17    18   ar
    25    18    19   ar
    26    19    22    1
    27    22    23    1
    28    23    24    1
    29    23    25    1
    30    23    26    1
    31    19    20   ar
    32    20    21   ar
    33    34    35   ar
    34    35    30   ar
    35    10     1    1
    36    21    16   ar
    37     9     4   ar
    38    13    14    1
@<TRIPOS>MOLECULE
*****
 35 38 0 0 0
SMALL
GASTEIGER

@<TRIPOS>ATOM
      1 N         139.0614  139.1836  161.8274 N.am    1  UNL1       -0.2657
      2 C         138.7060  139.2736  160.3729 C.2     1  UNL1        0.2493
      3 O         137.3873  139.7185  159.8134 O.2     1  UNL1       -0.2699
      4 C         139.9009  138.8407  159.5760 C.ar    1  UNL1        0.0516
      5 C         140.1341  138.7260  158.0987 C.ar    1  UNL1        0.0043
      6 C         141.4613  138.2536  157.5835 C.ar    1  UNL1        0.0001
      7 C         142.5552  137.8960  158.5455 C.ar    1  UNL1       -0.0003
      8 C         142.3219  138.0108  160.0228 C.ar    1  UNL1       -0.0021
      9 C         140.9948  138.4831  160.5381 C.ar    1  UNL1        0.0089
     10 C         140.4760  138.6950  161.9294 C.3     1  UNL1        0.1751
     11 C         141.2379  138.4596  163.1999 C.2     1  UNL1        0.2451
     12 O         140.8009  137.3828  164.1481 O.2     1  UNL1       -0.2729
     13 N         142.4372  139.3013  163.5221 N.am    1  UNL1       -0.2988
     14 H         142.7241  140.0081  162.8998 H       1  UNL1        0.1498
     15 C         143.1991  139.0659  164.7925 C.3     1  UNL1        0.1164
     16 C         142.9525  139.9383  165.9875 C.ar    1  UNL1       -0.0024
     17 C         143.0419  141.4300  165.8583 C.ar    1  UNL1        0.0005
     18 C         142.7952  142.3025  167.0533 C.ar    1  UNL1        0.0369
     19 C         142.4591  141.6833  168.3775 C.ar    1  UNL1        0.1468
     20 C         142.3698  140.1915  168.5067 C.ar    1  UNL1        0.0369
     21 C         142.6164  139.3190  167.3117 C.ar    1  UNL1        0.0005
     22 O         142.2125  142.5557  169.5725 O.3     1  UNL1       -0.4045
     23 C         140.8164  142.7451  170.0873 C.3     1  UNL1        0.5753
     24 F         139.4203  142.9346  170.6021 F       1  UNL1       -0.1328
     25 F         140.5131  143.6515  168.9312 F       1  UNL1       -0.1328
     26 F         141.1197  141.8388  171.2434 F       1  UNL1       -0.1328
     27 C         138.1605  139.5225  162.9778 C.3     1  UNL1        0.1007
     28 C         137.5245  140.8786  163.0580 C.3     1  UNL1        0.0673
     29 C         139.5722  145.5985  162.3309 C.3     1  UNL1        0.0521
     30 C         139.3353  144.4067  163.2103 C.ar    1  UNL1        0.0590
     31 C         139.8853  144.3831  164.6056 C.ar    1  UNL1        0.0147
     32 C         139.6484  143.1913  165.4851 C.ar    1  UNL1        0.0024
     33 C         138.8614  142.0231  164.9692 C.ar    1  UNL1        0.0148
     34 C         138.3114  142.0468  163.5739 C.ar    1  UNL1        0.0603
     35 N         138.5483  143.2386  162.6944 N.ar    1  UNL1       -0.2539
@<TRIPOS>BOND
     1    29    30    1
     2    30    31   ar
     3    31    32   ar
     4    32    33   ar
     5    33    34   ar
     6    34    28    1
     7    28    27    1
     8    27     1    1
     9     1     2   am
    10     2     3    2
    11     2     4    1
    12     4     5   ar
    13     5     6   ar
    14     6     7   ar
    15     7     8   ar
    16     8     9   ar
    17     9    10    1
    18    10    11    1
    19    11    12    2
    20    11    13   am
    21    13    15    1
    22    15    16    1
    23    16    17   ar
    24    17    18   ar
    25    18    19   ar
    26    19    22    1
    27    22    23    1
    28    23    24    1
    29    23    25    1
    30    23    26    1
    31    19    20   ar
    32    20    21   ar
    33    34    35   ar
    34    35    30   ar
    35    10     1    1
    36    21    16   ar
    37     9     4   ar
    38    13    14    1
