@<TRIPOS>MOLECULE
*****
 34 37 0 0 0
SMALL
GASTEIGER

@<TRIPOS>ATOM
      1 C         140.9142  140.9533  166.6114 C.3     1  UNL1        0.1751
      2 C         141.5649  140.9293  167.9627 C.ar    1  UNL1        0.0089
      3 C         142.9043  141.4066  168.4403 C.ar    1  UNL1       -0.0021
      4 C         143.2879  141.2451  169.8814 C.ar    1  UNL1       -0.0003
      5 C         142.3321  140.6062  170.8449 C.ar    1  UNL1        0.0001
      6 C         140.9927  140.1288  170.3672 C.ar    1  UNL1        0.0043
      7 C         140.6091  140.2904  168.9262 C.ar    1  UNL1        0.0516
      8 C         139.3677  139.9196  168.1703 C.2     1  UNL1        0.2493
      9 O         138.1513  139.2556  168.7443 O.2     1  UNL1       -0.2699
     10 N         139.5562  140.3293  166.7397 N.am    1  UNL1       -0.2657
     11 O         141.8006  142.9728  165.2382 O.2     1  UNL1       -0.2729
     12 C         141.5158  141.5046  165.3528 C.2     1  UNL1        0.2451
     13 N         141.8327  140.5876  164.2088 N.am    1  UNL1       -0.2988
     14 H         141.6458  139.6239  164.2840 H       1  UNL1        0.1498
     15 C         142.4344  141.1389  162.9501 C.3     1  UNL1        0.1165
     16 C         141.5454  141.6445  161.8529 C.ar    1  UNL1        0.0004
     17 C         141.9606  141.4898  160.4199 C.ar    1  UNL1       -0.0024
     18 C         141.0715  141.9955  159.3227 C.ar    1  UNL1        0.0028
     19 C         139.7672  142.6559  159.6585 C.ar    1  UNL1        0.0372
     20 C         139.3520  142.8105  161.0915 C.ar    1  UNL1        0.1465
     21 C         140.2411  142.3049  162.1888 C.ar    1  UNL1        0.0346
     22 O         138.0477  143.4709  161.4274 O.3     1  UNL1       -0.4045
     23 C         137.7373  143.8386  162.8481 C.3     1  UNL1        0.5753
     24 F         137.4268  144.2063  164.2688 F       1  UNL1       -0.1328
     25 F         137.1207  142.4881  163.0629 F       1  UNL1       -0.1328
     26 F         138.3538  145.1891  162.6333 F       1  UNL1       -0.1328
     27 C         138.5614  140.1470  165.6319 C.3     1  UNL1        0.1007
     28 C         138.4777  138.8363  164.9073 C.3     1  UNL1        0.0673
     29 C         138.8899  138.7476  163.4677 C.ar    1  UNL1        0.0607
     30 C         137.9935  139.2933  162.3959 C.ar    1  UNL1        0.0148
     31 C         138.4056  139.2045  160.9564 C.ar    1  UNL1        0.0028
     32 C         139.7142  138.5700  160.5887 C.ar    1  UNL1        0.0207
     33 C         140.6105  138.0243  161.6605 C.ar    1  UNL1        0.0984
     34 N         140.1983  138.1131  163.1000 N.ar    1  UNL1       -0.2481
@<TRIPOS>BOND
     1    11    12    2
     2    12    13   am
     3    13    15    1
     4    15    16    1
     5    16    17   ar
     6    17    18   ar
     7    18    19   ar
     8    19    20   ar
     9    20    22    1
    10    22    23    1
    11    23    24    1
    12    23    25    1
    13    23    26    1
    14    20    21   ar
    15    12     1    1
    16     1     2    1
    17     2     3   ar
    18     3     4   ar
    19     4     5   ar
    20     5     6   ar
    21     6     7   ar
    22     7     8    1
    23     8     9    2
    24     8    10   am
    25    10    27    1
    26    27    28    1
    27    28    29    1
    28    29    30   ar
    29    30    31   ar
    30    31    32   ar
    31    32    33   ar
    32    33    34   ar
    33    21    16   ar
    34    10     1    1
    35    34    29   ar
    36     7     2   ar
    37    13    14    1
@<TRIPOS>MOLECULE
*****
 34 37 0 0 0
SMALL
GASTEIGER

@<TRIPOS>ATOM
      1 C         143.4136  143.1848  163.7786 C.3     1  UNL1        0.1751
      2 C         142.4045  143.9463  162.9713 C.ar    1  UNL1        0.0089
      3 C         141.1942  144.7390  163.3671 C.ar    1  UNL1       -0.0021
      4 C         140.3569  145.4047  162.3156 C.ar    1  UNL1       -0.0003
      5 C         140.7300  145.2778  160.8683 C.ar    1  UNL1        0.0001
      6 C         141.9403  144.4851  160.4725 C.ar    1  UNL1        0.0043
      7 C         142.7776  143.8194  161.5240 C.ar    1  UNL1        0.0516
      8 C         144.0173  142.9794  161.4369 C.2     1  UNL1        0.2493
      9 O         144.7374  142.5984  160.1774 O.2     1  UNL1       -0.2699
     10 N         144.4104  142.5871  162.8303 N.am    1  UNL1       -0.2657
     11 O         144.5015  143.7064  166.0796 O.2     1  UNL1       -0.2729
     12 C         143.4241  143.0453  165.2721 C.2     1  UNL1        0.2451
     13 N         142.3571  142.2447  165.9581 N.am    1  UNL1       -0.2988
     14 H         141.6499  141.8108  165.4282 H       1  UNL1        0.1498
     15 C         142.3676  142.1053  167.4516 C.3     1  UNL1        0.1165
     16 C         141.2099  141.4584  168.1525 C.ar    1  UNL1        0.0004
     17 C         140.9263  141.7833  169.5892 C.ar    1  UNL1       -0.0024
     18 C         139.7686  141.1364  170.2900 C.ar    1  UNL1        0.0028
     19 C         138.8944  140.1645  169.5543 C.ar    1  UNL1        0.0372
     20 C         139.1780  139.8396  168.1176 C.ar    1  UNL1        0.1465
     21 C         140.3358  140.4866  167.4167 C.ar    1  UNL1        0.0346
     22 O         138.3039  138.8678  167.3818 O.3     1  UNL1       -0.4045
     23 C         138.3566  138.7966  165.8845 C.3     1  UNL1        0.5753
     24 F         138.4093  138.7253  164.3871 F       1  UNL1       -0.1328
     25 F         139.0271  137.4575  165.9718 F       1  UNL1       -0.1328
     26 F         137.6861  140.1355  165.7971 F       1  UNL1       -0.1328
     27 C         145.5926  141.7451  163.2089 C.3     1  UNL1        0.1007
     28 C         145.4009  140.5182  164.0502 C.3     1  UNL1        0.0673
     29 C         144.2040  139.6403  163.8344 C.ar    1  UNL1        0.0607
     30 C         143.9894  138.9780  162.5057 C.ar    1  UNL1        0.0148
     31 C         142.7925  138.1001  162.2899 C.ar    1  UNL1        0.0028
     32 C         141.8101  137.8844  163.4028 C.ar    1  UNL1        0.0207
     33 C         142.0248  138.5466  164.7315 C.ar    1  UNL1        0.0984
     34 N         143.2217  139.4245  164.9473 N.ar    1  UNL1       -0.2481
@<TRIPOS>BOND
     1    11    12    2
     2    12    13   am
     3    13    15    1
     4    15    16    1
     5    16    17   ar
     6    17    18   ar
     7    18    19   ar
     8    19    20   ar
     9    20    22    1
    10    22    23    1
    11    23    24    1
    12    23    25    1
    13    23    26    1
    14    20    21   ar
    15    12     1    1
    16     1     2    1
    17     2     3   ar
    18     3     4   ar
    19     4     5   ar
    20     5     6   ar
    21     6     7   ar
    22     7     8    1
    23     8     9    2
    24     8    10   am
    25    10    27    1
    26    27    28    1
    27    28    29    1
    28    29    30   ar
    29    30    31   ar
    30    31    32   ar
    31    32    33   ar
    32    33    34   ar
    33    21    16   ar
    34    10     1    1
    35    34    29   ar
    36     7     2   ar
    37    13    14    1
@<TRIPOS>MOLECULE
*****
 34 37 0 0 0
SMALL
GASTEIGER

@<TRIPOS>ATOM
      1 C         141.8863  143.9365  161.9439 C.3     1  UNL1        0.1751
      2 C         141.9877  144.0973  160.4560 C.ar    1  UNL1        0.0089
      3 C         142.8704  143.4448  159.4338 C.ar    1  UNL1       -0.0021
      4 C         142.7416  143.8147  157.9859 C.ar    1  UNL1       -0.0003
      5 C         141.7300  144.8372  157.5602 C.ar    1  UNL1        0.0001
      6 C         140.8472  145.4897  158.5824 C.ar    1  UNL1        0.0043
      7 C         140.9761  145.1197  160.0303 C.ar    1  UNL1        0.0516
      8 C         140.2495  145.5908  161.2551 C.2     1  UNL1        0.2493
      9 O         139.1529  146.6137  161.2909 O.2     1  UNL1       -0.2699
     10 N         140.8120  144.8596  162.4378 N.am    1  UNL1       -0.2657
     11 O         142.9766  141.6104  162.3319 O.2     1  UNL1       -0.2729
     12 C         142.7139  143.0145  162.7895 C.2     1  UNL1        0.2451
     13 N         143.2788  143.4966  164.0928 N.am    1  UNL1       -0.2988
     14 H         143.1064  144.4182  164.3932 H       1  UNL1        0.1498
     15 C         144.1064  142.5746  164.9384 C.3     1  UNL1        0.1165
     16 C         143.4415  141.6702  165.9332 C.ar    1  UNL1        0.0004
     17 C         143.2132  140.2259  165.5985 C.ar    1  UNL1       -0.0024
     18 C         142.5483  139.3215  166.5934 C.ar    1  UNL1        0.0028
     19 C         142.1116  139.8613  167.9231 C.ar    1  UNL1        0.0372
     20 C         142.3399  141.3055  168.2578 C.ar    1  UNL1        0.1465
     21 C         143.0048  142.2100  167.2629 C.ar    1  UNL1        0.0346
     22 O         141.9032  141.8453  169.5875 O.3     1  UNL1       -0.4045
     23 C         141.1748  143.1544  169.6628 C.3     1  UNL1        0.5753
     24 F         140.4464  144.4635  169.7380 F       1  UNL1       -0.1328
     25 F         140.0044  142.5441  168.9502 F       1  UNL1       -0.1328
     26 F         142.3452  143.7647  170.3753 F       1  UNL1       -0.1328
     27 C         140.3767  145.0227  163.8640 C.3     1  UNL1        0.1007
     28 C         139.0425  144.4985  164.3056 C.3     1  UNL1        0.0673
     29 C         138.8317  143.0218  164.4632 C.ar    1  UNL1        0.0607
     30 C         139.5100  142.2821  165.5780 C.ar    1  UNL1        0.0148
     31 C         139.2992  140.8054  165.7356 C.ar    1  UNL1        0.0028
     32 C         138.4100  140.0684  164.7784 C.ar    1  UNL1        0.0207
     33 C         137.7317  140.8081  163.6636 C.ar    1  UNL1        0.0984
     34 N         137.9426  142.2848  163.5060 N.ar    1  UNL1       -0.2481
@<TRIPOS>BOND
     1    11    12    2
     2    12    13   am
     3    13    15    1
     4    15    16    1
     5    16    17   ar
     6    17    18   ar
     7    18    19   ar
     8    19    20   ar
     9    20    22    1
    10    22    23    1
    11    23    24    1
    12    23    25    1
    13    23    26    1
    14    20    21   ar
    15    12     1    1
    16     1     2    1
    17     2     3   ar
    18     3     4   ar
    19     4     5   ar
    20     5     6   ar
    21     6     7   ar
    22     7     8    1
    23     8     9    2
    24     8    10   am
    25    10    27    1
    26    27    28    1
    27    28    29    1
    28    29    30   ar
    29    30    31   ar
    30    31    32   ar
    31    32    33   ar
    32    33    34   ar
    33    21    16   ar
    34    10     1    1
    35    34    29   ar
    36     7     2   ar
    37    13    14    1
@<TRIPOS>MOLECULE
*****
 34 37 0 0 0
SMALL
GASTEIGER

@<TRIPOS>ATOM
      1 C         142.1663  144.1262  160.9686 C.3     1  UNL1        0.1751
      2 C         141.9287  144.4042  159.5139 C.ar    1  UNL1        0.0089
      3 C         142.6288  143.9319  158.2743 C.ar    1  UNL1       -0.0021
      4 C         142.1560  144.3880  156.9259 C.ar    1  UNL1       -0.0003
      5 C         140.9830  145.3166  156.8170 C.ar    1  UNL1        0.0001
      6 C         140.2828  145.7889  158.0566 C.ar    1  UNL1        0.0043
      7 C         140.7556  145.3328  159.4050 C.ar    1  UNL1        0.0516
      8 C         140.2683  145.6286  160.7925 C.2     1  UNL1        0.2493
      9 O         139.1122  146.5146  161.1507 O.2     1  UNL1       -0.2699
     10 N         141.1401  144.8829  161.7589 N.am    1  UNL1       -0.2657
     11 O         144.5409  143.8444  161.9844 O.2     1  UNL1       -0.2729
     12 C         143.2413  143.2460  161.5339 C.2     1  UNL1        0.2451
     13 N         143.0168  141.7673  161.6486 N.am    1  UNL1       -0.2988
     14 H         142.1639  141.3745  161.3528 H       1  UNL1        0.1498
     15 C         144.0919  140.8871  162.2138 C.3     1  UNL1        0.1165
     16 C         143.8152  140.0510  163.4280 C.ar    1  UNL1        0.0004
     17 C         144.9490  139.5883  164.2943 C.ar    1  UNL1       -0.0024
     18 C         144.6723  138.7522  165.5085 C.ar    1  UNL1        0.0028
     19 C         143.2617  138.3787  165.8565 C.ar    1  UNL1        0.0372
     20 C         142.1280  138.8414  164.9902 C.ar    1  UNL1        0.1465
     21 C         142.4047  139.6775  163.7759 C.ar    1  UNL1        0.0346
     22 O         140.7175  138.4680  165.3381 O.3     1  UNL1       -0.4045
     23 C         139.8396  137.8152  164.3118 C.3     1  UNL1        0.5753
     24 F         138.9617  137.1626  163.2855 F       1  UNL1       -0.1328
     25 F         138.8024  138.8781  164.5232 F       1  UNL1       -0.1328
     26 F         140.8768  136.7525  164.1005 F       1  UNL1       -0.1328
     27 C         141.0089  144.8923  163.2531 C.3     1  UNL1        0.1007
     28 C         140.4559  143.6934  163.9649 C.3     1  UNL1        0.0673
     29 C         141.2366  143.0537  165.0746 C.ar    1  UNL1        0.0607
     30 C         142.7331  143.1544  165.0935 C.ar    1  UNL1        0.0148
     31 C         143.5139  142.5148  166.2032 C.ar    1  UNL1        0.0028
     32 C         142.7980  141.7744  167.2939 C.ar    1  UNL1        0.0207
     33 C         141.3016  141.6737  167.2749 C.ar    1  UNL1        0.0984
     34 N         140.5209  142.3134  166.1652 N.ar    1  UNL1       -0.2481
@<TRIPOS>BOND
     1    11    12    2
     2    12    13   am
     3    13    15    1
     4    15    16    1
     5    16    17   ar
     6    17    18   ar
     7    18    19   ar
     8    19    20   ar
     9    20    22    1
    10    22    23    1
    11    23    24    1
    12    23    25    1
    13    23    26    1
    14    20    21   ar
    15    12     1    1
    16     1     2    1
    17     2     3   ar
    18     3     4   ar
    19     4     5   ar
    20     5     6   ar
    21     6     7   ar
    22     7     8    1
    23     8     9    2
    24     8    10   am
    25    10    27    1
    26    27    28    1
    27    28    29    1
    28    29    30   ar
    29    30    31   ar
    30    31    32   ar
    31    32    33   ar
    32    33    34   ar
    33    21    16   ar
    34    10     1    1
    35    34    29   ar
    36     7     2   ar
    37    13    14    1
@<TRIPOS>MOLECULE
*****
 34 37 0 0 0
SMALL
GASTEIGER

@<TRIPOS>ATOM
      1 C         141.3504  140.9906  166.9073 C.3     1  UNL1        0.1751
      2 C         141.7401  141.5170  168.2568 C.ar    1  UNL1        0.0089
      3 C         142.8778  142.3858  168.7050 C.ar    1  UNL1       -0.0021
      4 C         143.0136  142.7562  170.1521 C.ar    1  UNL1       -0.0003
      5 C         142.0118  142.2578  171.1511 C.ar    1  UNL1        0.0001
      6 C         140.8741  141.3890  170.7029 C.ar    1  UNL1        0.0043
      7 C         140.7383  141.0186  169.2557 C.ar    1  UNL1        0.0516
      8 C         139.7295  140.1841  168.5237 C.2     1  UNL1        0.2493
      9 O         138.5495  139.4890  169.1356 O.2     1  UNL1       -0.2699
     10 N         140.1078  140.1668  167.0723 N.am    1  UNL1       -0.2657
     11 O         143.4195  140.6207  165.3802 O.2     1  UNL1       -0.2729
     12 C         142.0760  141.2435  165.6191 C.2     1  UNL1        0.2451
     13 N         141.4581  142.1194  164.5697 N.am    1  UNL1       -0.2988
     14 H         140.5763  142.5282  164.7265 H       1  UNL1        0.1498
     15 C         142.1837  142.3724  163.2815 C.3     1  UNL1        0.1165
     16 C         142.0711  141.3915  162.1523 C.ar    1  UNL1        0.0004
     17 C         142.5273  141.7764  160.7761 C.ar    1  UNL1       -0.0024
     18 C         142.4147  140.7954  159.6470 C.ar    1  UNL1        0.0028
     19 C         141.8459  139.4295  159.8939 C.ar    1  UNL1        0.0372
     20 C         141.3898  139.0446  161.2700 C.ar    1  UNL1        0.1465
     21 C         141.5024  140.0256  162.3993 C.ar    1  UNL1        0.0346
     22 O         140.8211  137.6788  161.5170 O.3     1  UNL1       -0.4045
     23 C         139.7204  137.4948  162.5193 C.3     1  UNL1        0.5753
     24 F         138.6196  137.3108  163.5215 F       1  UNL1       -0.1328
     25 F         138.7161  137.9413  161.4984 F       1  UNL1       -0.1328
     26 F         140.7245  137.0482  163.5402 F       1  UNL1       -0.1328
     27 C         139.3725  139.4514  165.9779 C.3     1  UNL1        0.1007
     28 C         138.0787  140.0041  165.4578 C.3     1  UNL1        0.0673
     29 C         138.0886  141.0587  164.3912 C.ar    1  UNL1        0.0607
     30 C         137.8935  140.6742  162.9544 C.ar    1  UNL1        0.0148
     31 C         137.9033  141.7289  161.8879 C.ar    1  UNL1        0.0028
     32 C         138.1082  143.1680  162.2580 C.ar    1  UNL1        0.0207
     33 C         138.3033  143.5525  163.6947 C.ar    1  UNL1        0.0984
     34 N         138.2935  142.4978  164.7613 N.ar    1  UNL1       -0.2481
@<TRIPOS>BOND
     1    11    12    2
     2    12    13   am
     3    13    15    1
     4    15    16    1
     5    16    17   ar
     6    17    18   ar
     7    18    19   ar
     8    19    20   ar
     9    20    22    1
    10    22    23    1
    11    23    24    1
    12    23    25    1
    13    23    26    1
    14    20    21   ar
    15    12     1    1
    16     1     2    1
    17     2     3   ar
    18     3     4   ar
    19     4     5   ar
    20     5     6   ar
    21     6     7   ar
    22     7     8    1
    23     8     9    2
    24     8    10   am
    25    10    27    1
    26    27    28    1
    27    28    29    1
    28    29    30   ar
    29    30    31   ar
    30    31    32   ar
    31    32    33   ar
    32    33    34   ar
    33    21    16   ar
    34    10     1    1
    35    34    29   ar
    36     7     2   ar
    37    13    14    1
@<TRIPOS>MOLECULE
*****
 34 37 0 0 0
SMALL
GASTEIGER

@<TRIPOS>ATOM
      1 C         139.3605  142.1619  162.0898 C.3     1  UNL1        0.1751
      2 C         139.8756  141.6191  160.7897 C.ar    1  UNL1        0.0089
      3 C         140.1626  140.2208  160.3292 C.ar    1  UNL1       -0.0021
      4 C         140.6826  139.9796  158.9431 C.ar    1  UNL1       -0.0003
      5 C         140.9154  141.1367  158.0174 C.ar    1  UNL1        0.0001
      6 C         140.6283  142.5351  158.4780 C.ar    1  UNL1        0.0043
      7 C         140.1084  142.7763  159.8641 C.ar    1  UNL1        0.0516
      8 C         139.7372  144.0341  160.5922 C.2     1  UNL1        0.2493
      9 O         139.8147  145.4272  160.0413 O.2     1  UNL1       -0.2699
     10 N         139.2749  143.6544  161.9677 N.am    1  UNL1       -0.2657
     11 O         137.5588  141.0167  163.5706 O.2     1  UNL1       -0.2729
     12 C         138.9950  141.3538  163.2996 C.2     1  UNL1        0.2451
     13 N         140.0660  140.8828  164.2385 N.am    1  UNL1       -0.2988
     14 H         141.0087  141.1041  164.0606 H       1  UNL1        0.1498
     15 C         139.7006  140.0748  165.4482 C.3     1  UNL1        0.1165
     16 C         140.5750  140.1110  166.6664 C.ar    1  UNL1        0.0004
     17 C         141.8643  139.3446  166.6873 C.ar    1  UNL1       -0.0024
     18 C         142.7387  139.3809  167.9055 C.ar    1  UNL1        0.0028
     19 C         142.3239  140.1836  169.1029 C.ar    1  UNL1        0.0372
     20 C         141.0347  140.9500  169.0820 C.ar    1  UNL1        0.1465
     21 C         140.1602  140.9138  167.8637 C.ar    1  UNL1        0.0346
     22 O         140.6199  141.7527  170.2793 O.3     1  UNL1       -0.4045
     23 C         140.4617  143.2401  170.1669 C.3     1  UNL1        0.5753
     24 F         140.3037  144.7275  170.0544 F       1  UNL1       -0.1328
     25 F         141.7545  143.3202  169.4102 F       1  UNL1       -0.1328
     26 F         139.1691  143.1600  170.9235 F       1  UNL1       -0.1328
     27 C         138.8090  144.6010  163.0339 C.3     1  UNL1        0.1007
     28 C         139.5695  144.7131  164.3219 C.3     1  UNL1        0.0673
     29 C         141.0448  144.4430  164.3478 C.ar    1  UNL1        0.0607
     30 C         141.9880  145.3613  163.6285 C.ar    1  UNL1        0.0148
     31 C         143.4633  145.0912  163.6544 C.ar    1  UNL1        0.0028
     32 C         143.9953  143.9029  164.3995 C.ar    1  UNL1        0.0207
     33 C         143.0521  142.9848  165.1186 C.ar    1  UNL1        0.0984
     34 N         141.5768  143.2549  165.0928 N.ar    1  UNL1       -0.2481
@<TRIPOS>BOND
     1    11    12    2
     2    12    13   am
     3    13    15    1
     4    15    16    1
     5    16    17   ar
     6    17    18   ar
     7    18    19   ar
     8    19    20   ar
     9    20    22    1
    10    22    23    1
    11    23    24    1
    12    23    25    1
    13    23    26    1
    14    20    21   ar
    15    12     1    1
    16     1     2    1
    17     2     3   ar
    18     3     4   ar
    19     4     5   ar
    20     5     6   ar
    21     6     7   ar
    22     7     8    1
    23     8     9    2
    24     8    10   am
    25    10    27    1
    26    27    28    1
    27    28    29    1
    28    29    30   ar
    29    30    31   ar
    30    31    32   ar
    31    32    33   ar
    32    33    34   ar
    33    21    16   ar
    34    10     1    1
    35    34    29   ar
    36     7     2   ar
    37    13    14    1
@<TRIPOS>MOLECULE
*****
 34 37 0 0 0
SMALL
GASTEIGER

@<TRIPOS>ATOM
      1 C         140.2317  138.8606  160.9085 C.3     1  UNL1        0.1751
      2 C         140.9565  138.6253  159.6165 C.ar    1  UNL1        0.0089
      3 C         142.2993  138.0297  159.3131 C.ar    1  UNL1       -0.0021
      4 C         142.7683  137.9221  157.8924 C.ar    1  UNL1       -0.0003
      5 C         141.8944  138.4102  156.7751 C.ar    1  UNL1        0.0001
      6 C         140.5517  139.0058  157.0786 C.ar    1  UNL1        0.0043
      7 C         140.0827  139.1134  158.4993 C.ar    1  UNL1        0.0516
      8 C         138.8179  139.6503  159.1008 C.2     1  UNL1        0.2493
      9 O         137.6636  140.2399  158.3459 O.2     1  UNL1       -0.2699
     10 N         138.9099  139.4941  160.5898 N.am    1  UNL1       -0.2657
     11 O         140.7853  137.0920  162.7294 O.2     1  UNL1       -0.2729
     12 C         140.7396  138.5219  162.2787 C.2     1  UNL1        0.2451
     13 N         141.2017  139.6133  163.1983 N.am    1  UNL1       -0.2988
     14 H         141.1717  140.5518  162.9025 H       1  UNL1        0.1498
     15 C         141.7096  139.2746  164.5685 C.3     1  UNL1        0.1165
     16 C         140.8281  139.4743  165.7655 C.ar    1  UNL1        0.0004
     17 C         139.4374  138.9122  165.7751 C.ar    1  UNL1       -0.0024
     18 C         138.5560  139.1120  166.9722 C.ar    1  UNL1        0.0028
     19 C         139.0651  139.8739  168.1598 C.ar    1  UNL1        0.0372
     20 C         140.4558  140.4360  168.1502 C.ar    1  UNL1        0.1465
     21 C         141.3373  140.2362  166.9531 C.ar    1  UNL1        0.0346
     22 O         140.9650  141.1979  169.3378 O.3     1  UNL1       -0.4045
     23 C         140.6934  142.6682  169.4581 C.3     1  UNL1        0.5753
     24 F         140.4217  144.1384  169.5786 F       1  UNL1       -0.1328
     25 F         139.4085  142.3722  170.1736 F       1  UNL1       -0.1328
     26 F         141.9781  142.9641  168.7428 F       1  UNL1       -0.1328
     27 C         137.8639  139.9001  161.5853 C.3     1  UNL1        0.1007
     28 C         137.7023  141.3444  161.9565 C.3     1  UNL1        0.0673
     29 C         138.6456  141.9771  162.9363 C.ar    1  UNL1        0.0607
     30 C         138.2469  142.1215  164.3751 C.ar    1  UNL1        0.0148
     31 C         139.1902  142.7541  165.3549 C.ar    1  UNL1        0.0028
     32 C         140.5322  143.2425  164.8957 C.ar    1  UNL1        0.0207
     33 C         140.9308  143.0981  163.4569 C.ar    1  UNL1        0.0984
     34 N         139.9875  142.4654  162.4772 N.ar    1  UNL1       -0.2481
@<TRIPOS>BOND
     1    11    12    2
     2    12    13   am
     3    13    15    1
     4    15    16    1
     5    16    17   ar
     6    17    18   ar
     7    18    19   ar
     8    19    20   ar
     9    20    22    1
    10    22    23    1
    11    23    24    1
    12    23    25    1
    13    23    26    1
    14    20    21   ar
    15    12     1    1
    16     1     2    1
    17     2     3   ar
    18     3     4   ar
    19     4     5   ar
    20     5     6   ar
    21     6     7   ar
    22     7     8    1
    23     8     9    2
    24     8    10   am
    25    10    27    1
    26    27    28    1
    27    28    29    1
    28    29    30   ar
    29    30    31   ar
    30    31    32   ar
    31    32    33   ar
    32    33    34   ar
    33    21    16   ar
    34    10     1    1
    35    34    29   ar
    36     7     2   ar
    37    13    14    1
@<TRIPOS>MOLECULE
*****
 34 37 0 0 0
SMALL
GASTEIGER

@<TRIPOS>ATOM
      1 C         140.4716  138.8819  159.9863 C.3     1  UNL1        0.1751
      2 C         141.1832  138.4415  158.7414 C.ar    1  UNL1        0.0089
      3 C         142.4775  137.7136  158.5294 C.ar    1  UNL1       -0.0021
      4 C         142.9447  137.4042  157.1381 C.ar    1  UNL1       -0.0003
      5 C         142.1176  137.8226  155.9587 C.ar    1  UNL1        0.0001
      6 C         140.8233  138.5505  156.1707 C.ar    1  UNL1        0.0043
      7 C         140.3562  138.8600  157.5621 C.ar    1  UNL1        0.0516
      8 C         139.1334  139.5589  158.0781 C.2     1  UNL1        0.2493
      9 O         138.0325  140.1419  157.2426 O.2     1  UNL1       -0.2699
     10 N         139.2047  139.5724  159.5764 N.am    1  UNL1       -0.2657
     11 O         141.3550  137.2999  161.8482 O.2     1  UNL1       -0.2729
     12 C         140.9440  138.6690  161.3940 C.2     1  UNL1        0.2451
     13 N         141.0053  139.8254  162.3475 N.am    1  UNL1       -0.2988
     14 H         140.7356  140.7241  162.0494 H       1  UNL1        0.1498
     15 C         141.4777  139.6125  163.7552 C.3     1  UNL1        0.1165
     16 C         140.4810  139.4597  164.8656 C.ar    1  UNL1        0.0004
     17 C         139.3440  138.4915  164.7250 C.ar    1  UNL1       -0.0024
     18 C         138.3473  138.3387  165.8355 C.ar    1  UNL1        0.0028
     19 C         138.4875  139.1541  167.0867 C.ar    1  UNL1        0.0372
     20 C         139.6245  140.1223  167.2274 C.ar    1  UNL1        0.1465
     21 C         140.6213  140.2751  166.1168 C.ar    1  UNL1        0.0346
     22 O         139.7648  140.9377  168.4785 O.3     1  UNL1       -0.4045
     23 C         139.7710  140.2616  169.8175 C.3     1  UNL1        0.5753
     24 F         139.7772  139.5855  171.1564 F       1  UNL1       -0.1328
     25 F         141.0891  139.6249  169.4899 F       1  UNL1       -0.1328
     26 F         138.4529  140.8983  170.1451 F       1  UNL1       -0.1328
     27 C         138.1877  140.1714  160.5021 C.3     1  UNL1        0.1007
     28 C         138.0327  141.6611  160.5833 C.3     1  UNL1        0.0673
     29 C         137.9938  142.3394  161.9206 C.ar    1  UNL1        0.0607
     30 C         137.8630  141.5229  163.1721 C.ar    1  UNL1        0.0148
     31 C         137.8241  142.2011  164.5095 C.ar    1  UNL1        0.0028
     32 C         137.9160  143.6959  164.5953 C.ar    1  UNL1        0.0207
     33 C         138.0467  144.5123  163.3438 C.ar    1  UNL1        0.0984
     34 N         138.0857  143.8341  162.0064 N.ar    1  UNL1       -0.2481
@<TRIPOS>BOND
     1    11    12    2
     2    12    13   am
     3    13    15    1
     4    15    16    1
     5    16    17   ar
     6    17    18   ar
     7    18    19   ar
     8    19    20   ar
     9    20    22    1
    10    22    23    1
    11    23    24    1
    12    23    25    1
    13    23    26    1
    14    20    21   ar
    15    12     1    1
    16     1     2    1
    17     2     3   ar
    18     3     4   ar
    19     4     5   ar
    20     5     6   ar
    21     6     7   ar
    22     7     8    1
    23     8     9    2
    24     8    10   am
    25    10    27    1
    26    27    28    1
    27    28    29    1
    28    29    30   ar
    29    30    31   ar
    30    31    32   ar
    31    32    33   ar
    32    33    34   ar
    33    21    16   ar
    34    10     1    1
    35    34    29   ar
    36     7     2   ar
    37    13    14    1
@<TRIPOS>MOLECULE
*****
 34 37 0 0 0
SMALL
GASTEIGER

@<TRIPOS>ATOM
      1 C         141.2473  140.8899  166.7105 C.3     1  UNL1        0.1751
      2 C         141.5765  141.1271  168.1546 C.ar    1  UNL1        0.0089
      3 C         142.7325  141.8121  168.8211 C.ar    1  UNL1       -0.0021
      4 C         142.7926  141.8968  170.3175 C.ar    1  UNL1       -0.0003
      5 C         141.6967  141.2966  171.1473 C.ar    1  UNL1        0.0001
      6 C         140.5407  140.6116  170.4808 C.ar    1  UNL1        0.0043
      7 C         140.4806  140.5268  168.9844 C.ar    1  UNL1        0.0516
      8 C         139.4741  139.9187  168.0531 C.2     1  UNL1        0.2493
      9 O         138.2148  139.2105  168.4565 O.2     1  UNL1       -0.2699
     10 N         139.9480  140.1431  166.6478 N.am    1  UNL1       -0.2657
     11 O         143.0462  140.3693  164.9097 O.2     1  UNL1       -0.2729
     12 C         142.0727  141.3235  165.5354 C.2     1  UNL1        0.2451
     13 N         141.9244  142.7114  164.9859 N.am    1  UNL1       -0.2988
     14 H         141.2854  143.3378  165.3966 H       1  UNL1        0.1498
     15 C         142.7497  143.1450  163.8108 C.3     1  UNL1        0.1165
     16 C         142.1514  143.1506  162.4354 C.ar    1  UNL1        0.0004
     17 C         141.5036  141.9106  161.8942 C.ar    1  UNL1       -0.0024
     18 C         140.9053  141.9163  160.5187 C.ar    1  UNL1        0.0028
     19 C         140.9547  143.1618  159.6843 C.ar    1  UNL1        0.0372
     20 C         141.6024  144.4018  160.2255 C.ar    1  UNL1        0.1465
     21 C         142.2008  144.3962  161.6011 C.ar    1  UNL1        0.0346
     22 O         141.6518  145.6474  159.3913 O.3     1  UNL1       -0.4045
     23 C         141.2444  145.6003  157.9484 C.3     1  UNL1        0.5753
     24 F         140.8369  145.5532  156.5056 F       1  UNL1       -0.1328
     25 F         139.8536  146.0150  158.3277 F       1  UNL1       -0.1328
     26 F         142.6352  145.1856  157.5692 F       1  UNL1       -0.1328
     27 C         139.2458  139.6987  165.3990 C.3     1  UNL1        0.1007
     28 C         138.0351  140.4402  164.9150 C.3     1  UNL1        0.0673
     29 C         138.1934  141.7503  164.2019 C.ar    1  UNL1        0.0607
     30 C         137.7823  141.8765  162.7648 C.ar    1  UNL1        0.0148
     31 C         137.9405  143.1866  162.0517 C.ar    1  UNL1        0.0028
     32 C         138.5099  144.3706  162.7758 C.ar    1  UNL1        0.0207
     33 C         138.9210  144.2444  164.2128 C.ar    1  UNL1        0.0984
     34 N         138.7627  142.9343  164.9258 N.ar    1  UNL1       -0.2481
@<TRIPOS>BOND
     1    11    12    2
     2    12    13   am
     3    13    15    1
     4    15    16    1
     5    16    17   ar
     6    17    18   ar
     7    18    19   ar
     8    19    20   ar
     9    20    22    1
    10    22    23    1
    11    23    24    1
    12    23    25    1
    13    23    26    1
    14    20    21   ar
    15    12     1    1
    16     1     2    1
    17     2     3   ar
    18     3     4   ar
    19     4     5   ar
    20     5     6   ar
    21     6     7   ar
    22     7     8    1
    23     8     9    2
    24     8    10   am
    25    10    27    1
    26    27    28    1
    27    28    29    1
    28    29    30   ar
    29    30    31   ar
    30    31    32   ar
    31    32    33   ar
    32    33    34   ar
    33    21    16   ar
    34    10     1    1
    35    34    29   ar
    36     7     2   ar
    37    13    14    1
