@<TRIPOS>MOLECULE
*****
 36 40 0 0 0
SMALL
GASTEIGER

@<TRIPOS>ATOM
      1 N         138.9916  141.6634  160.4021 N.3     1  UNL1       -0.2690
      2 C         138.5621  140.2488  160.1485 C.3     1  UNL1        0.0724
      3 C         139.4223  139.3408  159.3206 C.3     1  UNL1        0.0175
      4 C         140.7120  139.8474  158.7462 C.3     1  UNL1        0.0060
      5 C         141.1415  141.2620  158.9997 C.3     1  UNL1        0.0175
      6 C         140.2813  142.1700  159.8276 C.3     1  UNL1        0.0724
      7 C         140.2825  138.4327  158.4926 C.3     1  UNL1        0.0217
      8 C         141.1428  137.5247  157.6647 C.3     1  UNL1        0.0937
      9 N         142.4325  138.0313  157.0903 N.am    1  UNL1       -0.2761
     10 C         143.2927  137.1233  156.2623 C.2     1  UNL1        0.2490
     11 O         144.5824  137.6299  155.6879 O.2     1  UNL1       -0.2699
     12 C         142.8620  139.4460  157.3438 C.3     1  UNL1        0.0937
     13 C         142.0017  140.3541  158.1718 C.3     1  UNL1        0.0217
     14 C         142.8632  135.7086  156.0088 C.ar    1  UNL1        0.0536
     15 C         143.3025  134.6139  156.9355 C.ar    1  UNL1        0.0054
     16 C         142.8730  133.1993  156.6819 C.ar    1  UNL1        0.0115
     17 C         142.0042  132.8793  155.5017 C.ar    1  UNL1        0.0577
     18 CL        141.5747  131.4647  155.2482 Cl      1  UNL1       -0.0822
     19 C         141.5649  133.9740  154.5751 C.ar    1  UNL1        0.0115
     20 C         141.9944  135.3887  154.8286 C.ar    1  UNL1        0.0054
     21 C         138.1313  142.5715  161.2300 C.3     1  UNL1        0.0992
     22 C         139.5000  142.2802  164.9438 C.ar    1  UNL1        0.1452
     23 C         139.4136  143.7094  165.3906 C.ar    1  UNL1        0.0375
     24 C         138.8997  144.7594  164.4507 C.ar    1  UNL1        0.0029
     25 C         138.4723  144.3801  163.0638 C.ar    1  UNL1       -0.0027
     26 C         138.5587  142.9508  162.6169 C.ar    1  UNL1       -0.0031
     27 C         139.0726  141.9008  163.5569 C.ar    1  UNL1        0.0346
     28 O         140.0138  141.2302  165.8838 O.3     1  UNL1       -0.4504
     29 C         139.4394  138.7671  165.2894 C.ar    1  UNL1        0.1730
     30 C         139.8573  137.4270  164.7608 C.ar    1  UNL1        0.0401
     31 C         141.2675  137.2097  164.2980 C.ar    1  UNL1        0.0033
     32 C         142.2598  138.3327  164.3638 C.ar    1  UNL1        0.0033
     33 C         141.8419  139.6729  164.8924 C.ar    1  UNL1        0.0406
     34 C         140.4318  139.8901  165.3552 C.ar    1  UNL1        0.1789
     35 C         137.6288  138.5971  167.1449 C.3     1  UNL1        0.2526
     36 O         138.0292  138.9844  165.7522 O.3     1  UNL1       -0.4684
@<TRIPOS>BOND
     1    35    36    1
     2    36    29    1
     3    29    30   ar
     4    30    31   ar
     5    31    32   ar
     6    32    33   ar
     7    33    34   ar
     8    34    28    1
     9    28    22    1
    10    22    23   ar
    11    23    24   ar
    12    24    25   ar
    13    25    26   ar
    14    26    21    1
    15    21     1    1
    16     1     2    1
    17     2     3    1
    18     3     4    1
    19     4     5    1
    20     5     6    1
    21     4     7    1
    22     7     8    1
    23     8     9    1
    24     9    10   am
    25    10    11    2
    26    10    14    1
    27    14    15   ar
    28    15    16   ar
    29    16    17   ar
    30    17    18    1
    31    17    19   ar
    32    19    20   ar
    33     9    12    1
    34    12    13    1
    35    26    27   ar
    36    34    29   ar
    37    27    22   ar
    38     6     1    1
    39    20    14   ar
    40    13     4    1
@<TRIPOS>MOLECULE
*****
 36 40 0 0 0
SMALL
GASTEIGER

@<TRIPOS>ATOM
      1 N         143.4022  139.5199  164.0763 N.3     1  UNL1       -0.2690
      2 C         142.9672  138.2106  163.4877 C.3     1  UNL1        0.0724
      3 C         142.9298  138.0333  161.9987 C.3     1  UNL1        0.0175
      4 C         143.3273  139.1653  161.0984 C.3     1  UNL1        0.0060
      5 C         143.7622  140.4746  161.6870 C.3     1  UNL1        0.0175
      6 C         143.7997  140.6519  163.1760 C.3     1  UNL1        0.0724
      7 C         142.8923  137.8560  160.5097 C.3     1  UNL1        0.0217
      8 C         142.8548  137.6787  159.0207 C.3     1  UNL1        0.0937
      9 N         143.2524  138.8107  158.1203 N.am    1  UNL1       -0.2761
     10 C         143.2149  138.6333  156.6313 C.2     1  UNL1        0.2490
     11 O         143.6124  139.7653  155.7309 O.2     1  UNL1       -0.2699
     12 C         143.6873  140.1199  158.7090 C.3     1  UNL1        0.0937
     13 C         143.7248  140.2973  160.1980 C.3     1  UNL1        0.0217
     14 C         142.7799  137.3240  156.0426 C.ar    1  UNL1        0.0536
     15 C         143.7990  136.2725  155.7173 C.ar    1  UNL1        0.0054
     16 C         143.3640  134.9632  155.1287 C.ar    1  UNL1        0.0115
     17 C         141.9099  134.7054  154.8653 C.ar    1  UNL1        0.0577
     18 CL        141.4750  133.3961  154.2767 Cl      1  UNL1       -0.0822
     19 C         140.8909  135.7569  155.1907 C.ar    1  UNL1        0.0115
     20 C         141.3259  137.0663  155.7793 C.ar    1  UNL1        0.0054
     21 C         143.4397  139.6973  165.5654 C.3     1  UNL1        0.0992
     22 C         139.5684  139.9751  166.3937 C.ar    1  UNL1        0.1452
     23 C         139.6001  139.9954  167.8932 C.ar    1  UNL1        0.0375
     24 C         140.9116  139.9163  168.6168 C.ar    1  UNL1        0.0029
     25 C         142.1915  139.8170  167.8409 C.ar    1  UNL1       -0.0027
     26 C         142.1598  139.7967  166.3413 C.ar    1  UNL1       -0.0031
     27 C         140.8483  139.8757  165.6177 C.ar    1  UNL1        0.0346
     28 O         138.2568  140.0542  165.6701 O.3     1  UNL1       -0.4504
     29 C         137.9756  140.4214  163.1135 C.ar    1  UNL1        0.1730
     30 C         137.8191  141.3469  161.9436 C.ar    1  UNL1        0.0401
     31 C         137.7874  142.8309  162.1602 C.ar    1  UNL1        0.0033
     32 C         137.9122  143.3893  163.5467 C.ar    1  UNL1        0.0033
     33 C         138.0687  142.4637  164.7167 C.ar    1  UNL1        0.0406
     34 C         138.1004  140.9798  164.5001 C.ar    1  UNL1        0.1789
     35 C         139.3031  138.2539  162.5752 C.3     1  UNL1        0.2526
     36 O         138.0072  138.9374  162.8969 O.3     1  UNL1       -0.4684
@<TRIPOS>BOND
     1    35    36    1
     2    36    29    1
     3    29    30   ar
     4    30    31   ar
     5    31    32   ar
     6    32    33   ar
     7    33    34   ar
     8    34    28    1
     9    28    22    1
    10    22    23   ar
    11    23    24   ar
    12    24    25   ar
    13    25    26   ar
    14    26    21    1
    15    21     1    1
    16     1     2    1
    17     2     3    1
    18     3     4    1
    19     4     5    1
    20     5     6    1
    21     4     7    1
    22     7     8    1
    23     8     9    1
    24     9    10   am
    25    10    11    2
    26    10    14    1
    27    14    15   ar
    28    15    16   ar
    29    16    17   ar
    30    17    18    1
    31    17    19   ar
    32    19    20   ar
    33     9    12    1
    34    12    13    1
    35    26    27   ar
    36    34    29   ar
    37    27    22   ar
    38     6     1    1
    39    20    14   ar
    40    13     4    1
@<TRIPOS>MOLECULE
*****
 36 40 0 0 0
SMALL
GASTEIGER

@<TRIPOS>ATOM
      1 N         139.6034  138.9170  160.5722 N.3     1  UNL1       -0.2690
      2 C         140.6749  139.7438  161.2188 C.3     1  UNL1        0.0724
      3 C         140.6642  139.9572  162.7035 C.3     1  UNL1        0.0175
      4 C         139.5819  139.3438  163.5416 C.3     1  UNL1        0.0060
      5 C         138.5104  138.5169  162.8950 C.3     1  UNL1        0.0175
      6 C         138.5211  138.3035  161.4103 C.3     1  UNL1        0.0724
      7 C         140.6535  140.1707  164.1883 C.3     1  UNL1        0.0217
      8 C         140.6428  140.3840  165.6729 C.3     1  UNL1        0.0937
      9 N         139.5605  139.7706  166.5110 N.am    1  UNL1       -0.2761
     10 C         139.5498  139.9840  167.9958 C.2     1  UNL1        0.2490
     11 O         138.4676  139.3705  168.8339 O.2     1  UNL1       -0.2699
     12 C         138.4890  138.9437  165.8644 C.3     1  UNL1        0.0937
     13 C         138.4997  138.7303  164.3797 C.3     1  UNL1        0.0217
     14 C         140.6213  140.8109  168.6424 C.ar    1  UNL1        0.0536
     15 C         141.9538  140.1983  168.9574 C.ar    1  UNL1        0.0054
     16 C         143.0254  141.0251  169.6040 C.ar    1  UNL1        0.0115
     17 C         142.7644  142.4646  169.9356 C.ar    1  UNL1        0.0577
     18 CL        143.8359  143.2915  170.5821 Cl      1  UNL1       -0.0822
     19 C         141.4319  143.0772  169.6205 C.ar    1  UNL1        0.0115
     20 C         140.3604  142.2503  168.9739 C.ar    1  UNL1        0.0054
     21 C         139.6141  138.7036  159.0875 C.3     1  UNL1        0.0992
     22 C         142.9256  138.0232  157.0088 C.ar    1  UNL1        0.1452
     23 C         143.3832  139.4257  156.7376 C.ar    1  UNL1        0.0375
     24 C         142.5845  140.5875  157.2497 C.ar    1  UNL1        0.0029
     25 C         141.3281  140.3468  158.0330 C.ar    1  UNL1       -0.0027
     26 C         140.8704  138.9443  158.3042 C.ar    1  UNL1       -0.0031
     27 C         141.6692  137.7825  157.7921 C.ar    1  UNL1        0.0346
     28 O         143.7244  136.8614  156.4968 O.3     1  UNL1       -0.4504
     29 C         142.8400  134.4249  156.3201 C.ar    1  UNL1        0.1730
     30 C         142.1666  133.3413  155.5311 C.ar    1  UNL1        0.0401
     31 C         141.7041  133.6108  154.1298 C.ar    1  UNL1        0.0033
     32 C         141.9151  134.9637  153.5175 C.ar    1  UNL1        0.0033
     33 C         142.5885  136.0473  154.3065 C.ar    1  UNL1        0.0406
     34 C         143.0509  135.7779  155.7078 C.ar    1  UNL1        0.1789
     35 C         144.4838  133.2632  157.9628 C.3     1  UNL1        0.2526
     36 O         143.3024  134.1555  157.7214 O.3     1  UNL1       -0.4684
@<TRIPOS>BOND
     1    35    36    1
     2    36    29    1
     3    29    30   ar
     4    30    31   ar
     5    31    32   ar
     6    32    33   ar
     7    33    34   ar
     8    34    28    1
     9    28    22    1
    10    22    23   ar
    11    23    24   ar
    12    24    25   ar
    13    25    26   ar
    14    26    21    1
    15    21     1    1
    16     1     2    1
    17     2     3    1
    18     3     4    1
    19     4     5    1
    20     5     6    1
    21     4     7    1
    22     7     8    1
    23     8     9    1
    24     9    10   am
    25    10    11    2
    26    10    14    1
    27    14    15   ar
    28    15    16   ar
    29    16    17   ar
    30    17    18    1
    31    17    19   ar
    32    19    20   ar
    33     9    12    1
    34    12    13    1
    35    26    27   ar
    36    34    29   ar
    37    27    22   ar
    38     6     1    1
    39    20    14   ar
    40    13     4    1
@<TRIPOS>MOLECULE
*****
 36 40 0 0 0
SMALL
GASTEIGER

@<TRIPOS>ATOM
      1 N         139.2641  141.6929  160.1415 N.3     1  UNL1       -0.2690
      2 C         138.8250  140.2740  159.9323 C.3     1  UNL1        0.0724
      3 C         139.6828  139.3326  159.1398 C.3     1  UNL1        0.0175
      4 C         140.9797  139.8102  158.5566 C.3     1  UNL1        0.0060
      5 C         141.4187  141.2291  158.7658 C.3     1  UNL1        0.0175
      6 C         140.5609  142.1705  159.5583 C.3     1  UNL1        0.0724
      7 C         140.5406  138.3912  158.3473 C.3     1  UNL1        0.0217
      8 C         141.3984  137.4498  157.5549 C.3     1  UNL1        0.0937
      9 N         142.6953  137.9274  156.9717 N.am    1  UNL1       -0.2761
     10 C         143.5531  136.9860  156.1792 C.2     1  UNL1        0.2490
     11 O         144.8499  137.4636  155.5960 O.2     1  UNL1       -0.2699
     12 C         143.1343  139.3464  157.1809 C.3     1  UNL1        0.0937
     13 C         142.2765  140.2878  157.9734 C.3     1  UNL1        0.0217
     14 C         143.1140  135.5671  155.9700 C.ar    1  UNL1        0.0536
     15 C         143.4140  134.5281  157.0095 C.ar    1  UNL1        0.0054
     16 C         142.9750  133.1092  156.8003 C.ar    1  UNL1        0.0115
     17 C         142.2359  132.7291  155.5515 C.ar    1  UNL1        0.0577
     18 CL        141.7969  131.3102  155.3422 Cl      1  UNL1       -0.0822
     19 C         141.9359  133.7681  154.5120 C.ar    1  UNL1        0.0115
     20 C         142.3750  135.1871  154.7212 C.ar    1  UNL1        0.0054
     21 C         138.4063  142.6343  160.9340 C.3     1  UNL1        0.0992
     22 C         140.1136  142.4130  164.5097 C.ar    1  UNL1        0.1452
     23 C         139.4282  143.5415  165.2215 C.ar    1  UNL1        0.0375
     24 C         138.4021  144.3676  164.5041 C.ar    1  UNL1        0.0029
     25 C         138.0614  144.0653  163.0749 C.ar    1  UNL1       -0.0027
     26 C         138.7469  142.9367  162.3631 C.ar    1  UNL1       -0.0031
     27 C         139.7730  142.1106  163.0805 C.ar    1  UNL1        0.0346
     28 O         141.1397  141.5869  165.2271 O.3     1  UNL1       -0.4504
     29 C         143.1811  140.4995  164.0437 C.ar    1  UNL1        0.1730
     30 C         144.6189  140.5559  163.6202 C.ar    1  UNL1        0.0401
     31 C         145.4534  141.7561  163.9566 C.ar    1  UNL1        0.0033
     32 C         144.8499  142.9000  164.7166 C.ar    1  UNL1        0.0033
     33 C         143.4120  142.8435  165.1401 C.ar    1  UNL1        0.0406
     34 C         142.5776  141.6433  164.8036 C.ar    1  UNL1        0.1789
     35 C         141.7875  139.1382  162.3247 C.3     1  UNL1        0.2526
     36 O         142.3466  139.2993  163.7072 O.3     1  UNL1       -0.4684
@<TRIPOS>BOND
     1    35    36    1
     2    36    29    1
     3    29    30   ar
     4    30    31   ar
     5    31    32   ar
     6    32    33   ar
     7    33    34   ar
     8    34    28    1
     9    28    22    1
    10    22    23   ar
    11    23    24   ar
    12    24    25   ar
    13    25    26   ar
    14    26    21    1
    15    21     1    1
    16     1     2    1
    17     2     3    1
    18     3     4    1
    19     4     5    1
    20     5     6    1
    21     4     7    1
    22     7     8    1
    23     8     9    1
    24     9    10   am
    25    10    11    2
    26    10    14    1
    27    14    15   ar
    28    15    16   ar
    29    16    17   ar
    30    17    18    1
    31    17    19   ar
    32    19    20   ar
    33     9    12    1
    34    12    13    1
    35    26    27   ar
    36    34    29   ar
    37    27    22   ar
    38     6     1    1
    39    20    14   ar
    40    13     4    1
@<TRIPOS>MOLECULE
*****
 36 40 0 0 0
SMALL
GASTEIGER

@<TRIPOS>ATOM
      1 N         139.6252  138.6919  161.0752 N.3     1  UNL1       -0.2690
      2 C         140.6767  139.5744  161.6797 C.3     1  UNL1        0.0724
      3 C         140.6586  139.8625  163.1516 C.3     1  UNL1        0.0175
      4 C         139.5889  139.2681  164.0191 C.3     1  UNL1        0.0060
      5 C         138.5374  138.3856  163.4146 C.3     1  UNL1        0.0175
      6 C         138.5556  138.0975  161.9427 C.3     1  UNL1        0.0724
      7 C         140.6404  140.1507  164.6236 C.3     1  UNL1        0.0217
      8 C         140.6223  140.4388  166.0956 C.3     1  UNL1        0.0937
      9 N         139.5526  139.8443  166.9630 N.am    1  UNL1       -0.2761
     10 C         139.5345  140.1325  168.4350 C.2     1  UNL1        0.2490
     11 O         138.4648  139.5380  169.3025 O.2     1  UNL1       -0.2699
     12 C         138.5011  138.9618  166.3585 C.3     1  UNL1        0.0937
     13 C         138.5192  138.6737  164.8865 C.3     1  UNL1        0.0217
     14 C         140.5860  141.0150  169.0395 C.ar    1  UNL1        0.0536
     15 C         140.2941  142.4645  169.2920 C.ar    1  UNL1        0.0054
     16 C         141.3456  143.3470  169.8965 C.ar    1  UNL1        0.0115
     17 C         142.6890  142.7801  170.2485 C.ar    1  UNL1        0.0577
     18 CL        143.7405  143.6626  170.8530 Cl      1  UNL1       -0.0822
     19 C         142.9809  141.3305  169.9960 C.ar    1  UNL1        0.0115
     20 C         141.9293  140.4480  169.3915 C.ar    1  UNL1        0.0054
     21 C         139.6434  138.4038  159.6032 C.3     1  UNL1        0.0992
     22 C         138.3613  141.4130  157.3557 C.ar    1  UNL1        0.1452
     23 C         139.6262  141.7957  156.6461 C.ar    1  UNL1        0.0375
     24 C         140.8968  141.0479  156.9223 C.ar    1  UNL1        0.0029
     25 C         140.9026  139.9173  157.9079 C.ar    1  UNL1       -0.0027
     26 C         139.6376  139.5344  158.6175 C.ar    1  UNL1       -0.0031
     27 C         138.3670  140.2823  158.3414 C.ar    1  UNL1        0.0346
     28 O         137.0907  142.1608  157.0796 O.3     1  UNL1       -0.4504
     29 C         135.2151  140.9060  155.7921 C.ar    1  UNL1        0.1730
     30 C         134.4562  140.6525  154.5233 C.ar    1  UNL1        0.0401
     31 C         134.8141  141.4002  153.2731 C.ar    1  UNL1        0.0033
     32 C         135.9308  142.4015  153.2918 C.ar    1  UNL1        0.0033
     33 C         136.6897  142.6550  154.5606 C.ar    1  UNL1        0.0406
     34 C         136.3318  141.9073  155.8107 C.ar    1  UNL1        0.1789
     35 C         133.4936  139.5506  157.1883 C.3     1  UNL1        0.2526
     36 O         134.8572  140.1583  157.0423 O.3     1  UNL1       -0.4684
@<TRIPOS>BOND
     1    35    36    1
     2    36    29    1
     3    29    30   ar
     4    30    31   ar
     5    31    32   ar
     6    32    33   ar
     7    33    34   ar
     8    34    28    1
     9    28    22    1
    10    22    23   ar
    11    23    24   ar
    12    24    25   ar
    13    25    26   ar
    14    26    21    1
    15    21     1    1
    16     1     2    1
    17     2     3    1
    18     3     4    1
    19     4     5    1
    20     5     6    1
    21     4     7    1
    22     7     8    1
    23     8     9    1
    24     9    10   am
    25    10    11    2
    26    10    14    1
    27    14    15   ar
    28    15    16   ar
    29    16    17   ar
    30    17    18    1
    31    17    19   ar
    32    19    20   ar
    33     9    12    1
    34    12    13    1
    35    26    27   ar
    36    34    29   ar
    37    27    22   ar
    38     6     1    1
    39    20    14   ar
    40    13     4    1
@<TRIPOS>MOLECULE
*****
 36 40 0 0 0
SMALL
GASTEIGER

@<TRIPOS>ATOM
      1 N         138.3663  139.1928  165.0797 N.3     1  UNL1       -0.2690
      2 C         138.0106  140.4881  164.4123 C.3     1  UNL1        0.0724
      3 C         138.0989  140.6119  162.9200 C.3     1  UNL1        0.0175
      4 C         138.5430  139.4404  162.0952 C.3     1  UNL1        0.0060
      5 C         138.8988  138.1451  162.7626 C.3     1  UNL1        0.0175
      6 C         138.8104  138.0213  164.2548 C.3     1  UNL1        0.0724
      7 C         138.1872  140.7358  161.4277 C.3     1  UNL1        0.0217
      8 C         138.2756  140.8597  159.9355 C.3     1  UNL1        0.0937
      9 N         138.7197  139.6881  159.1106 N.am    1  UNL1       -0.2761
     10 C         138.8080  139.8120  157.6183 C.2     1  UNL1        0.2490
     11 O         139.2520  138.6405  156.7935 O.2     1  UNL1       -0.2699
     12 C         139.0754  138.3928  159.7780 C.3     1  UNL1        0.0937
     13 C         138.9871  138.2689  161.2704 C.3     1  UNL1        0.0217
     14 C         138.4522  141.1074  156.9509 C.ar    1  UNL1        0.0536
     15 C         139.5046  142.1546  156.7368 C.ar    1  UNL1        0.0054
     16 C         139.1489  143.4499  156.0694 C.ar    1  UNL1        0.0115
     17 C         137.7407  143.6981  155.6161 C.ar    1  UNL1        0.0577
     18 CL        137.3849  144.9934  154.9487 Cl      1  UNL1       -0.0822
     19 C         136.6883  142.6509  155.8301 C.ar    1  UNL1        0.0115
     20 C         137.0441  141.3555  156.4976 C.ar    1  UNL1        0.0054
     21 C         138.2780  139.0689  166.5720 C.3     1  UNL1        0.0992
     22 C         141.6622  140.7876  167.7310 C.ar    1  UNL1        0.1452
     23 C         141.3700  141.0402  169.1803 C.ar    1  UNL1        0.0375
     24 C         140.0471  140.6357  169.7603 C.ar    1  UNL1        0.0029
     25 C         139.0165  139.9786  168.8909 C.ar    1  UNL1       -0.0027
     26 C         139.3087  139.7260  167.4414 C.ar    1  UNL1       -0.0031
     27 C         140.6316  140.1305  166.8615 C.ar    1  UNL1        0.0346
     28 O         142.9851  141.1921  167.1510 O.3     1  UNL1       -0.4504
     29 C         143.0206  141.9134  164.6553 C.ar    1  UNL1        0.1730
     30 C         143.3342  141.6109  163.2200 C.ar    1  UNL1        0.0401
     31 C         143.9261  140.2845  162.8450 C.ar    1  UNL1        0.0033
     32 C         144.2043  139.2607  163.9054 C.ar    1  UNL1        0.0033
     33 C         143.8907  139.5633  165.3408 C.ar    1  UNL1        0.0406
     34 C         143.2988  140.8896  165.7157 C.ar    1  UNL1        0.1789
     35 C         140.9392  143.4155  165.0578 C.3     1  UNL1        0.2526
     36 O         142.4287  143.2397  165.0303 O.3     1  UNL1       -0.4684
@<TRIPOS>BOND
     1    35    36    1
     2    36    29    1
     3    29    30   ar
     4    30    31   ar
     5    31    32   ar
     6    32    33   ar
     7    33    34   ar
     8    34    28    1
     9    28    22    1
    10    22    23   ar
    11    23    24   ar
    12    24    25   ar
    13    25    26   ar
    14    26    21    1
    15    21     1    1
    16     1     2    1
    17     2     3    1
    18     3     4    1
    19     4     5    1
    20     5     6    1
    21     4     7    1
    22     7     8    1
    23     8     9    1
    24     9    10   am
    25    10    11    2
    26    10    14    1
    27    14    15   ar
    28    15    16   ar
    29    16    17   ar
    30    17    18    1
    31    17    19   ar
    32    19    20   ar
    33     9    12    1
    34    12    13    1
    35    26    27   ar
    36    34    29   ar
    37    27    22   ar
    38     6     1    1
    39    20    14   ar
    40    13     4    1
@<TRIPOS>MOLECULE
*****
 36 40 0 0 0
SMALL
GASTEIGER

@<TRIPOS>ATOM
      1 N         142.8282  140.3951  159.6054 N.3     1  UNL1       -0.2690
      2 C         142.0420  141.3279  160.4781 C.3     1  UNL1        0.0724
      3 C         142.0450  141.1438  161.9667 C.3     1  UNL1        0.0175
      4 C         142.8343  140.0268  162.5827 C.3     1  UNL1        0.0060
      5 C         143.6205  139.0939  161.7100 C.3     1  UNL1        0.0175
      6 C         143.6174  139.2781  160.2214 C.3     1  UNL1        0.0724
      7 C         142.0480  140.9596  163.4554 C.3     1  UNL1        0.0217
      8 C         142.0511  140.7755  164.9440 C.3     1  UNL1        0.0937
      9 N         142.8403  139.6585  165.5600 N.am    1  UNL1       -0.2761
     10 C         142.8433  139.4743  167.0487 C.2     1  UNL1        0.2490
     11 O         143.6326  138.3573  167.6646 O.2     1  UNL1       -0.2699
     12 C         143.6265  138.7256  164.6873 C.3     1  UNL1        0.0937
     13 C         143.6235  138.9097  163.1986 C.3     1  UNL1        0.0217
     14 C         142.0571  140.4072  167.9214 C.ar    1  UNL1        0.0536
     15 C         140.6510  140.0617  168.3131 C.ar    1  UNL1        0.0054
     16 C         139.8648  140.9945  169.1858 C.ar    1  UNL1        0.0115
     17 C         140.4847  142.2730  169.6668 C.ar    1  UNL1        0.0577
     18 CL        139.6985  143.2059  170.5394 Cl      1  UNL1       -0.0822
     19 C         141.8908  142.6185  169.2750 C.ar    1  UNL1        0.0115
     20 C         142.6770  141.6856  168.4023 C.ar    1  UNL1        0.0054
     21 C         142.8252  140.5792  158.1167 C.3     1  UNL1        0.0992
     22 C         142.9338  136.9660  156.4787 C.ar    1  UNL1        0.1452
     23 C         143.9825  137.1639  155.4248 C.ar    1  UNL1        0.0375
     24 C         144.6455  138.5003  155.2681 C.ar    1  UNL1        0.0029
     25 C         144.2597  139.6387  156.1654 C.ar    1  UNL1       -0.0027
     26 C         143.2109  139.4408  157.2194 C.ar    1  UNL1       -0.0031
     27 C         142.5479  138.1044  157.3761 C.ar    1  UNL1        0.0346
     28 O         142.2708  135.6296  156.6354 O.3     1  UNL1       -0.4504
     29 C         143.1561  133.5149  155.4130 C.ar    1  UNL1        0.1730
     30 C         143.9828  132.2633  155.4159 C.ar    1  UNL1        0.0401
     31 C         144.7510  131.8747  156.6444 C.ar    1  UNL1        0.0033
     32 C         144.6924  132.7378  157.8698 C.ar    1  UNL1        0.0033
     33 C         143.8656  133.9894  157.8668 C.ar    1  UNL1        0.0406
     34 C         143.0975  134.3780  156.6384 C.ar    1  UNL1        0.1789
     35 C         142.1121  132.8845  153.1189 C.3     1  UNL1        0.2526
     36 O         142.3879  133.9035  154.1845 O.3     1  UNL1       -0.4684
@<TRIPOS>BOND
     1    35    36    1
     2    36    29    1
     3    29    30   ar
     4    30    31   ar
     5    31    32   ar
     6    32    33   ar
     7    33    34   ar
     8    34    28    1
     9    28    22    1
    10    22    23   ar
    11    23    24   ar
    12    24    25   ar
    13    25    26   ar
    14    26    21    1
    15    21     1    1
    16     1     2    1
    17     2     3    1
    18     3     4    1
    19     4     5    1
    20     5     6    1
    21     4     7    1
    22     7     8    1
    23     8     9    1
    24     9    10   am
    25    10    11    2
    26    10    14    1
    27    14    15   ar
    28    15    16   ar
    29    16    17   ar
    30    17    18    1
    31    17    19   ar
    32    19    20   ar
    33     9    12    1
    34    12    13    1
    35    26    27   ar
    36    34    29   ar
    37    27    22   ar
    38     6     1    1
    39    20    14   ar
    40    13     4    1
@<TRIPOS>MOLECULE
*****
 36 40 0 0 0
SMALL
GASTEIGER

@<TRIPOS>ATOM
      1 N         139.0356  141.5646  159.9207 N.3     1  UNL1       -0.2690
      2 C         138.5505  140.1925  159.5572 C.3     1  UNL1        0.0724
      3 C         139.4398  139.2625  158.7865 C.3     1  UNL1        0.0175
      4 C         140.8141  139.7044  158.3793 C.3     1  UNL1        0.0060
      5 C         141.2992  141.0765  158.7427 C.3     1  UNL1        0.0175
      6 C         140.4099  142.0065  159.5134 C.3     1  UNL1        0.0724
      7 C         140.3291  138.3323  158.0158 C.3     1  UNL1        0.0217
      8 C         141.2183  137.4022  157.2450 C.3     1  UNL1        0.0937
      9 N         142.5927  137.8441  156.8378 N.am    1  UNL1       -0.2761
     10 C         143.4820  136.9139  156.0670 C.2     1  UNL1        0.2490
     11 O         144.8563  137.3559  155.6597 O.2     1  UNL1       -0.2699
     12 C         143.0778  139.2162  157.2012 C.3     1  UNL1        0.0937
     13 C         142.1885  140.1464  157.9720 C.3     1  UNL1        0.0217
     14 C         142.9969  135.5419  155.7035 C.ar    1  UNL1        0.0536
     15 C         143.1716  134.4051  156.6665 C.ar    1  UNL1        0.0054
     16 C         142.6865  133.0331  156.3030 C.ar    1  UNL1        0.0115
     17 C         142.0267  132.7978  154.9766 C.ar    1  UNL1        0.0577
     18 CL        141.5417  131.4257  154.6131 Cl      1  UNL1       -0.0822
     19 C         141.8521  133.9345  154.0136 C.ar    1  UNL1        0.0115
     20 C         142.3372  135.3066  154.3772 C.ar    1  UNL1        0.0054
     21 C         138.1463  142.4948  160.6915 C.3     1  UNL1        0.0992
     22 C         139.3637  141.8818  164.4187 C.ar    1  UNL1        0.1452
     23 C         138.7981  143.0902  165.1040 C.ar    1  UNL1        0.0375
     24 C         138.0153  144.1003  164.3185 C.ar    1  UNL1        0.0029
     25 C         137.7980  143.9018  162.8477 C.ar    1  UNL1       -0.0027
     26 C         138.3636  142.6932  162.1623 C.ar    1  UNL1       -0.0031
     27 C         139.1464  141.6832  162.9478 C.ar    1  UNL1        0.0346
     28 O         140.1465  140.8718  165.2042 O.3     1  UNL1       -0.4504
     29 C         140.9161  141.0771  167.6772 C.ar    1  UNL1        0.1730
     30 C         141.9240  141.5326  168.6905 C.ar    1  UNL1        0.0401
     31 C         143.1702  142.2381  168.2442 C.ar    1  UNL1        0.0033
     32 C         143.4085  142.4882  166.7845 C.ar    1  UNL1        0.0033
     33 C         142.4006  142.0327  165.7712 C.ar    1  UNL1        0.0406
     34 C         141.1545  141.3272  166.2175 C.ar    1  UNL1        0.1789
     35 C         139.2445  140.4375  169.5605 C.3     1  UNL1        0.2526
     36 O         139.6699  140.3716  168.1236 O.3     1  UNL1       -0.4684
@<TRIPOS>BOND
     1    35    36    1
     2    36    29    1
     3    29    30   ar
     4    30    31   ar
     5    31    32   ar
     6    32    33   ar
     7    33    34   ar
     8    34    28    1
     9    28    22    1
    10    22    23   ar
    11    23    24   ar
    12    24    25   ar
    13    25    26   ar
    14    26    21    1
    15    21     1    1
    16     1     2    1
    17     2     3    1
    18     3     4    1
    19     4     5    1
    20     5     6    1
    21     4     7    1
    22     7     8    1
    23     8     9    1
    24     9    10   am
    25    10    11    2
    26    10    14    1
    27    14    15   ar
    28    15    16   ar
    29    16    17   ar
    30    17    18    1
    31    17    19   ar
    32    19    20   ar
    33     9    12    1
    34    12    13    1
    35    26    27   ar
    36    34    29   ar
    37    27    22   ar
    38     6     1    1
    39    20    14   ar
    40    13     4    1
@<TRIPOS>MOLECULE
*****
 36 40 0 0 0
SMALL
GASTEIGER

@<TRIPOS>ATOM
      1 N         140.7367  138.8480  160.3600 N.3     1  UNL1       -0.2690
      2 C         139.9994  139.8460  161.2028 C.3     1  UNL1        0.0724
      3 C         140.3120  139.9695  162.6647 C.3     1  UNL1        0.0175
      4 C         141.3619  139.0951  163.2836 C.3     1  UNL1        0.0060
      5 C         142.0992  138.0971  162.4408 C.3     1  UNL1        0.0175
      6 C         141.7866  137.9736  160.9790 C.3     1  UNL1        0.0724
      7 C         140.6246  140.0931  164.1266 C.3     1  UNL1        0.0217
      8 C         140.9372  140.2166  165.5884 C.3     1  UNL1        0.0937
      9 N         141.9871  139.3422  166.2074 N.am    1  UNL1       -0.2761
     10 C         142.2997  139.4657  167.6693 C.2     1  UNL1        0.2490
     11 O         143.3495  138.5913  168.2882 O.2     1  UNL1       -0.2699
     12 C         142.7244  138.3442  165.3645 C.3     1  UNL1        0.0937
     13 C         142.4118  138.2206  163.9026 C.3     1  UNL1        0.0217
     14 C         141.5624  140.4637  168.5121 C.ar    1  UNL1        0.0536
     15 C         140.2546  140.0904  169.1449 C.ar    1  UNL1        0.0054
     16 C         139.5173  141.0883  169.9878 C.ar    1  UNL1        0.0115
     17 C         140.0878  142.4597  170.1979 C.ar    1  UNL1        0.0577
     18 CL        139.3505  143.4576  171.0407 Cl      1  UNL1       -0.0822
     19 C         141.3955  142.8330  169.5651 C.ar    1  UNL1        0.0115
     20 C         142.1328  141.8350  168.7222 C.ar    1  UNL1        0.0054
     21 C         140.4241  138.7244  158.8981 C.3     1  UNL1        0.0992
     22 C         143.3788  137.8136  156.4100 C.ar    1  UNL1        0.1452
     23 C         143.7054  139.1664  155.8504 C.ar    1  UNL1        0.0375
     24 C         142.9382  140.3719  156.3067 C.ar    1  UNL1        0.0029
     25 C         141.8445  140.2246  157.3226 C.ar    1  UNL1       -0.0027
     26 C         141.5179  138.8717  157.8822 C.ar    1  UNL1       -0.0031
     27 C         142.2850  137.6662  157.4259 C.ar    1  UNL1        0.0346
     28 O         144.1459  136.6080  155.9537 O.3     1  UNL1       -0.4504
     29 C         143.5705  134.0795  155.7935 C.ar    1  UNL1        0.1730
     30 C         142.8568  132.9504  155.1112 C.ar    1  UNL1        0.0401
     31 C         142.0046  133.2206  153.9067 C.ar    1  UNL1        0.0033
     32 C         141.8662  134.6199  153.3845 C.ar    1  UNL1        0.0033
     33 C         142.5800  135.7491  154.0669 C.ar    1  UNL1        0.0406
     34 C         143.4321  135.4789  155.2713 C.ar    1  UNL1        0.1789
     35 C         144.4395  132.4414  157.6133 C.3     1  UNL1        0.2526
     36 O         144.4227  133.8093  156.9980 O.3     1  UNL1       -0.4684
@<TRIPOS>BOND
     1    35    36    1
     2    36    29    1
     3    29    30   ar
     4    30    31   ar
     5    31    32   ar
     6    32    33   ar
     7    33    34   ar
     8    34    28    1
     9    28    22    1
    10    22    23   ar
    11    23    24   ar
    12    24    25   ar
    13    25    26   ar
    14    26    21    1
    15    21     1    1
    16     1     2    1
    17     2     3    1
    18     3     4    1
    19     4     5    1
    20     5     6    1
    21     4     7    1
    22     7     8    1
    23     8     9    1
    24     9    10   am
    25    10    11    2
    26    10    14    1
    27    14    15   ar
    28    15    16   ar
    29    16    17   ar
    30    17    18    1
    31    17    19   ar
    32    19    20   ar
    33     9    12    1
    34    12    13    1
    35    26    27   ar
    36    34    29   ar
    37    27    22   ar
    38     6     1    1
    39    20    14   ar
    40    13     4    1
