@<TRIPOS>MOLECULE
*****
 34 37 0 0 0
SMALL
GASTEIGER

@<TRIPOS>ATOM
      1 C         142.4678  140.3699  168.2772 C.3     1  UNL1        0.1106
      2 C         142.6955  139.5830  167.0207 C.3     1  UNL1        0.0400
      3 C         143.2519  140.2590  165.8028 C.3     1  UNL1        0.0743
      4 N         143.5805  141.7220  165.8413 N.3     1  UNL1       -0.2665
      5 C         143.3528  142.5091  167.0979 C.3     1  UNL1        0.1098
      6 C         142.7965  141.8330  168.3158 C.3     1  UNL1        0.1948
      7 F         142.5688  142.6199  169.5723 F       1  UNL1       -0.2340
      8 C         142.7875  138.8021  170.3241 C.3     1  UNL1        0.1149
      9 N         141.9114  139.6938  169.4952 N.am    1  UNL1       -0.2763
     10 C         140.4788  139.9096  169.8842 C.2     1  UNL1        0.2301
     11 O         139.9224  139.2335  171.1021 O.2     1  UNL1       -0.2745
     12 C         139.6027  140.8014  169.0553 C.3     1  UNL1        0.1116
     13 C         139.2877  140.4338  167.6355 C.ar    1  UNL1       -0.0130
     14 C         139.6525  141.3681  166.5202 C.ar    1  UNL1       -0.0022
     15 C         139.3376  141.0005  165.1005 C.ar    1  UNL1        0.0190
     16 C         138.6577  139.6985  164.7961 C.ar    1  UNL1        0.0862
     17 C         138.2929  138.7642  165.9113 C.ar    1  UNL1        0.0190
     18 C         138.6079  139.1318  167.3310 C.ar    1  UNL1       -0.0022
     19 N         138.3427  139.3309  163.3763 N.ar    1  UNL1       -0.1886
     20 C         137.7243  140.2319  162.3487 C.ar    1  UNL1        0.2258
     21 N         137.5902  139.4557  161.0722 N.ar    1  UNL1       -0.1045
     22 N         138.1258  138.0750  161.3108 N.ar    1  UNL1       -0.0222
     23 N         138.5909  137.9979  162.7348 N.ar    1  UNL1       -0.0385
     24 C         144.1369  142.3981  164.6234 C.3     1  UNL1        0.1008
     25 C         143.2295  143.1755  163.7167 C.ar    1  UNL1        0.0130
     26 C         141.8428  143.5284  164.1665 C.ar    1  UNL1        0.0001
     27 C         140.9352  144.3058  163.2597 C.ar    1  UNL1        0.0228
     28 C         141.4145  144.7302  161.9032 C.ar    1  UNL1        0.1526
     29 N         142.8013  144.3772  161.4534 N.ar    1  UNL1       -0.2401
     30 C         143.7088  143.5998  162.3601 C.ar    1  UNL1        0.0958
     31 C         140.5071  145.5076  160.9965 C.3     1  UNL1        0.4348
     32 F         139.5996  146.2849  160.0897 F       1  UNL1       -0.1644
     33 F         141.4868  145.3408  159.8730 F       1  UNL1       -0.1644
     34 F         139.5273  145.6743  162.1199 F       1  UNL1       -0.1644
@<TRIPOS>BOND
     1     8     9    1
     2     9    10   am
     3    10    11    2
     4    10    12    1
     5    12    13    1
     6    13    14   ar
     7    14    15   ar
     8    15    16   ar
     9    16    19    1
    10    19    20   ar
    11    20    21   ar
    12    21    22   ar
    13    22    23   ar
    14    16    17   ar
    15    17    18   ar
    16     1     9    1
    17     1     2    1
    18     2     3    1
    19     3     4    1
    20     4    24    1
    21    24    25    1
    22    25    26   ar
    23    26    27   ar
    24    27    28   ar
    25    28    31    1
    26    31    32    1
    27    31    33    1
    28    31    34    1
    29    28    29   ar
    30    29    30   ar
    31     4     5    1
    32     5     6    1
    33     6     7    1
    34    18    13   ar
    35     6     1    1
    36    23    19   ar
    37    30    25   ar
@<TRIPOS>MOLECULE
*****
 34 37 0 0 0
SMALL
GASTEIGER

@<TRIPOS>ATOM
      1 C         141.9505  140.9184  161.2097 C.3     1  UNL1        0.1106
      2 C         143.3612  141.0226  161.7086 C.3     1  UNL1        0.0400
      3 C         143.6339  141.5708  163.0780 C.3     1  UNL1        0.0743
      4 N         142.4959  142.0148  163.9484 N.3     1  UNL1       -0.2665
      5 C         141.0850  141.9106  163.4495 C.3     1  UNL1        0.1098
      6 C         140.8124  141.3624  162.0801 C.3     1  UNL1        0.1948
      7 F         139.4017  141.2581  161.5812 F       1  UNL1       -0.2340
      8 C         141.3575  141.3020  158.7095 C.3     1  UNL1        0.1149
      9 N         141.6778  140.3701  159.8404 N.am    1  UNL1       -0.2763
     10 C         141.7254  138.8899  159.6020 C.2     1  UNL1        0.2301
     11 O         141.4527  138.3416  158.2326 O.2     1  UNL1       -0.2745
     12 C         142.0457  137.9580  160.7329 C.3     1  UNL1        0.1116
     13 C         141.1989  137.9622  161.9710 C.ar    1  UNL1       -0.0130
     14 C         139.7035  137.9336  161.8570 C.ar    1  UNL1       -0.0022
     15 C         138.8567  137.9378  163.0950 C.ar    1  UNL1        0.0190
     16 C         139.5053  137.9707  164.4472 C.ar    1  UNL1        0.0862
     17 C         141.0007  137.9993  164.5612 C.ar    1  UNL1        0.0190
     18 C         141.8474  137.9951  163.3231 C.ar    1  UNL1       -0.0022
     19 N         138.6585  137.9749  165.6853 N.ar    1  UNL1       -0.1886
     20 C         138.4881  139.1250  166.6330 C.ar    1  UNL1        0.2258
     21 N         137.5577  138.6907  167.7265 N.ar    1  UNL1       -0.1045
     22 N         137.1530  137.2721  167.4546 N.ar    1  UNL1       -0.0222
     23 N         137.8334  136.8297  166.1931 N.ar    1  UNL1       -0.0385
     24 C         142.7685  142.5631  165.3177 C.3     1  UNL1        0.1008
     25 C         142.1233  141.9371  166.5184 C.ar    1  UNL1        0.0130
     26 C         142.5333  140.5633  166.9594 C.ar    1  UNL1        0.0001
     27 C         141.8881  139.9372  168.1601 C.ar    1  UNL1        0.0228
     28 C         140.8328  140.6850  168.9199 C.ar    1  UNL1        0.1526
     29 N         140.4228  142.0588  168.4788 N.ar    1  UNL1       -0.2401
     30 C         141.0680  142.6848  167.2781 C.ar    1  UNL1        0.0958
     31 C         140.1876  140.0589  170.1206 C.3     1  UNL1        0.4348
     32 F         139.5423  139.4329  171.3213 F       1  UNL1       -0.1644
     33 F         138.9220  140.8106  169.8324 F       1  UNL1       -0.1644
     34 F         141.4532  139.3072  170.4088 F       1  UNL1       -0.1644
@<TRIPOS>BOND
     1     8     9    1
     2     9    10   am
     3    10    11    2
     4    10    12    1
     5    12    13    1
     6    13    14   ar
     7    14    15   ar
     8    15    16   ar
     9    16    19    1
    10    19    20   ar
    11    20    21   ar
    12    21    22   ar
    13    22    23   ar
    14    16    17   ar
    15    17    18   ar
    16     1     9    1
    17     1     2    1
    18     2     3    1
    19     3     4    1
    20     4    24    1
    21    24    25    1
    22    25    26   ar
    23    26    27   ar
    24    27    28   ar
    25    28    31    1
    26    31    32    1
    27    31    33    1
    28    31    34    1
    29    28    29   ar
    30    29    30   ar
    31     4     5    1
    32     5     6    1
    33     6     7    1
    34    18    13   ar
    35     6     1    1
    36    23    19   ar
    37    30    25   ar
@<TRIPOS>MOLECULE
*****
 34 37 0 0 0
SMALL
GASTEIGER

@<TRIPOS>ATOM
      1 C         141.6739  140.0629  166.7476 C.3     1  UNL1        0.1106
      2 C         142.4540  138.9004  166.2092 C.3     1  UNL1        0.0400
      3 C         143.5766  139.1338  165.2422 C.3     1  UNL1        0.0743
      4 N         143.9192  140.5298  164.8135 N.3     1  UNL1       -0.2665
      5 C         143.1391  141.6925  165.3519 C.3     1  UNL1        0.1098
      6 C         142.0165  141.4590  166.3190 C.3     1  UNL1        0.1948
      7 F         141.2364  142.6216  166.8574 F       1  UNL1       -0.2340
      8 C         140.7813  140.0028  169.1868 C.3     1  UNL1        0.1149
      9 N         140.5513  139.8295  167.7147 N.am    1  UNL1       -0.2763
     10 C         139.1987  139.4228  167.2096 C.2     1  UNL1        0.2301
     11 O         138.0760  139.1894  168.1767 O.2     1  UNL1       -0.2745
     12 C         138.9687  139.2495  165.7376 C.3     1  UNL1        0.1116
     13 C         139.0812  140.4285  164.8170 C.ar    1  UNL1       -0.0130
     14 C         138.3487  141.6989  165.1323 C.ar    1  UNL1       -0.0022
     15 C         138.4612  142.8778  164.2118 C.ar    1  UNL1        0.0190
     16 C         139.3062  142.7863  162.9758 C.ar    1  UNL1        0.0862
     17 C         140.0387  141.5159  162.6605 C.ar    1  UNL1        0.0190
     18 C         139.9262  140.3370  163.5810 C.ar    1  UNL1       -0.0022
     19 N         139.4187  143.9652  162.0552 N.ar    1  UNL1       -0.1886
     20 C         139.3496  145.4084  162.4584 C.ar    1  UNL1        0.2258
     21 N         139.5083  146.2432  161.2222 N.ar    1  UNL1       -0.1045
     22 N         139.6754  145.3158  160.0551 N.ar    1  UNL1       -0.0222
     23 N         139.6200  143.9080  160.5699 N.ar    1  UNL1       -0.0385
     24 C         145.0418  140.7632  163.8464 C.3     1  UNL1        0.1008
     25 C         144.7443  141.0060  162.3964 C.ar    1  UNL1        0.0130
     26 C         144.1419  139.9151  161.5616 C.ar    1  UNL1        0.0001
     27 C         143.8444  140.1578  160.1115 C.ar    1  UNL1        0.0228
     28 C         144.1494  141.4915  159.4963 C.ar    1  UNL1        0.1526
     29 N         144.7519  142.5824  160.3313 N.ar    1  UNL1       -0.2401
     30 C         145.0493  142.3396  161.7813 C.ar    1  UNL1        0.0958
     31 C         143.8519  141.7342  158.0463 C.3     1  UNL1        0.4348
     32 F         143.5545  141.9770  156.5963 F       1  UNL1       -0.1644
     33 F         142.8125  140.6532  158.0786 F       1  UNL1       -0.1644
     34 F         144.8913  142.8152  158.0141 F       1  UNL1       -0.1644
@<TRIPOS>BOND
     1     8     9    1
     2     9    10   am
     3    10    11    2
     4    10    12    1
     5    12    13    1
     6    13    14   ar
     7    14    15   ar
     8    15    16   ar
     9    16    19    1
    10    19    20   ar
    11    20    21   ar
    12    21    22   ar
    13    22    23   ar
    14    16    17   ar
    15    17    18   ar
    16     1     9    1
    17     1     2    1
    18     2     3    1
    19     3     4    1
    20     4    24    1
    21    24    25    1
    22    25    26   ar
    23    26    27   ar
    24    27    28   ar
    25    28    31    1
    26    31    32    1
    27    31    33    1
    28    31    34    1
    29    28    29   ar
    30    29    30   ar
    31     4     5    1
    32     5     6    1
    33     6     7    1
    34    18    13   ar
    35     6     1    1
    36    23    19   ar
    37    30    25   ar
@<TRIPOS>MOLECULE
*****
 34 37 0 0 0
SMALL
GASTEIGER

@<TRIPOS>ATOM
      1 C         142.4994  140.2925  159.2634 C.3     1  UNL1        0.1106
      2 C         142.6767  139.0679  160.1114 C.3     1  UNL1        0.0400
      3 C         141.4915  138.4473  160.7897 C.3     1  UNL1        0.0743
      4 N         140.1290  139.0513  160.6201 N.3     1  UNL1       -0.2665
      5 C         139.9517  140.2759  159.7722 C.3     1  UNL1        0.1098
      6 C         141.1369  140.8965  159.0938 C.3     1  UNL1        0.1948
      7 F         140.9596  142.1210  158.2458 F       1  UNL1       -0.2340
      8 C         144.2671  140.2738  157.3595 C.3     1  UNL1        0.1149
      9 N         143.6846  140.9131  158.5851 N.am    1  UNL1       -0.2763
     10 C         144.2874  142.1730  159.1323 C.2     1  UNL1        0.2301
     11 O         145.4726  142.7935  158.4540 O.2     1  UNL1       -0.2745
     12 C         143.7049  142.8122  160.3579 C.3     1  UNL1        0.1116
     13 C         143.6503  142.0488  161.6481 C.ar    1  UNL1       -0.0130
     14 C         142.3657  141.9686  162.4182 C.ar    1  UNL1       -0.0022
     15 C         142.3111  141.2052  163.7083 C.ar    1  UNL1        0.0190
     16 C         143.5413  140.5222  164.2282 C.ar    1  UNL1        0.0862
     17 C         144.8259  140.6025  163.4581 C.ar    1  UNL1        0.0190
     18 C         144.8804  141.3658  162.1680 C.ar    1  UNL1       -0.0022
     19 N         143.4867  139.7589  165.5184 N.ar    1  UNL1       -0.1886
     20 C         142.7869  140.1945  166.7716 C.ar    1  UNL1        0.2258
     21 N         142.9900  139.1309  167.8096 N.ar    1  UNL1       -0.1045
     22 N         143.8153  138.0378  167.1978 N.ar    1  UNL1       -0.0222
     23 N         144.1222  138.4260  165.7818 N.ar    1  UNL1       -0.0385
     24 C         138.9438  138.4307  161.2985 C.3     1  UNL1        0.1008
     25 C         138.7504  138.6024  162.7760 C.ar    1  UNL1        0.0130
     26 C         139.0382  137.4625  163.7075 C.ar    1  UNL1        0.0001
     27 C         138.8448  137.6341  165.1851 C.ar    1  UNL1        0.0228
     28 C         138.3635  138.9457  165.7311 C.ar    1  UNL1        0.1526
     29 N         138.0757  140.0856  164.7995 N.ar    1  UNL1       -0.2401
     30 C         138.2691  139.9139  163.3220 C.ar    1  UNL1        0.0958
     31 C         138.1701  139.1174  167.2086 C.3     1  UNL1        0.4348
     32 F         137.9766  139.2891  168.6861 F       1  UNL1       -0.1644
     33 F         137.0096  138.1679  167.1670 F       1  UNL1       -0.1644
     34 F         139.3305  140.0668  167.2502 F       1  UNL1       -0.1644
@<TRIPOS>BOND
     1     8     9    1
     2     9    10   am
     3    10    11    2
     4    10    12    1
     5    12    13    1
     6    13    14   ar
     7    14    15   ar
     8    15    16   ar
     9    16    19    1
    10    19    20   ar
    11    20    21   ar
    12    21    22   ar
    13    22    23   ar
    14    16    17   ar
    15    17    18   ar
    16     1     9    1
    17     1     2    1
    18     2     3    1
    19     3     4    1
    20     4    24    1
    21    24    25    1
    22    25    26   ar
    23    26    27   ar
    24    27    28   ar
    25    28    31    1
    26    31    32    1
    27    31    33    1
    28    31    34    1
    29    28    29   ar
    30    29    30   ar
    31     4     5    1
    32     5     6    1
    33     6     7    1
    34    18    13   ar
    35     6     1    1
    36    23    19   ar
    37    30    25   ar
@<TRIPOS>MOLECULE
*****
 34 37 0 0 0
SMALL
GASTEIGER

@<TRIPOS>ATOM
      1 C         139.8535  141.1897  160.3739 C.3     1  UNL1        0.1106
      2 C         141.1949  141.8472  160.5094 C.3     1  UNL1        0.0400
      3 C         141.4784  142.7383  161.6823 C.3     1  UNL1        0.0743
      4 N         140.4204  142.9720  162.7196 N.3     1  UNL1       -0.2665
      5 C         139.0790  142.3145  162.5842 C.3     1  UNL1        0.1098
      6 C         138.7955  141.4234  161.4113 C.3     1  UNL1        0.1948
      7 F         137.4541  140.7659  161.2758 F       1  UNL1       -0.2340
      8 C         138.7498  140.8079  158.0532 C.3     1  UNL1        0.1149
      9 N         139.5701  140.2986  159.2011 N.am    1  UNL1       -0.2763
     10 C         140.1069  138.8981  159.1762 C.2     1  UNL1        0.2301
     11 O         139.8235  138.0070  158.0034 O.2     1  UNL1       -0.2745
     12 C         140.9272  138.3889  160.3241 C.3     1  UNL1        0.1116
     13 C         140.3871  138.4601  161.7218 C.ar    1  UNL1       -0.0130
     14 C         139.0191  137.9250  162.0254 C.ar    1  UNL1       -0.0022
     15 C         138.4791  137.9963  163.4230 C.ar    1  UNL1        0.0190
     16 C         139.3071  138.6028  164.5169 C.ar    1  UNL1        0.0862
     17 C         140.6750  139.1379  164.2133 C.ar    1  UNL1        0.0190
     18 C         141.2151  139.0666  162.8157 C.ar    1  UNL1       -0.0022
     19 N         138.7670  138.6741  165.9145 N.ar    1  UNL1       -0.1886
     20 C         139.2773  139.5591  167.0129 C.ar    1  UNL1        0.2258
     21 N         138.4476  139.3049  168.2363 N.ar    1  UNL1       -0.1045
     22 N         137.4243  138.2628  167.8941 N.ar    1  UNL1       -0.0222
     23 N         137.6218  137.8729  166.4592 N.ar    1  UNL1       -0.0385
     24 C         140.7039  143.8631  163.8925 C.3     1  UNL1        0.1008
     25 C         141.2757  143.2848  165.1528 C.ar    1  UNL1        0.0130
     26 C         142.7225  142.8931  165.2092 C.ar    1  UNL1        0.0001
     27 C         143.2944  142.3148  166.4697 C.ar    1  UNL1        0.0228
     28 C         142.4194  142.1283  167.6736 C.ar    1  UNL1        0.1526
     29 N         140.9725  142.5200  167.6172 N.ar    1  UNL1       -0.2401
     30 C         140.4007  143.0983  166.3568 C.ar    1  UNL1        0.0958
     31 C         142.9912  141.5500  168.9340 C.3     1  UNL1        0.4348
     32 F         143.5630  140.9717  170.1944 F       1  UNL1       -0.1644
     33 F         141.9467  140.4737  168.9141 F       1  UNL1       -0.1644
     34 F         144.0357  142.6263  168.9540 F       1  UNL1       -0.1644
@<TRIPOS>BOND
     1     8     9    1
     2     9    10   am
     3    10    11    2
     4    10    12    1
     5    12    13    1
     6    13    14   ar
     7    14    15   ar
     8    15    16   ar
     9    16    19    1
    10    19    20   ar
    11    20    21   ar
    12    21    22   ar
    13    22    23   ar
    14    16    17   ar
    15    17    18   ar
    16     1     9    1
    17     1     2    1
    18     2     3    1
    19     3     4    1
    20     4    24    1
    21    24    25    1
    22    25    26   ar
    23    26    27   ar
    24    27    28   ar
    25    28    31    1
    26    31    32    1
    27    31    33    1
    28    31    34    1
    29    28    29   ar
    30    29    30   ar
    31     4     5    1
    32     5     6    1
    33     6     7    1
    34    18    13   ar
    35     6     1    1
    36    23    19   ar
    37    30    25   ar
@<TRIPOS>MOLECULE
*****
 34 37 0 0 0
SMALL
GASTEIGER

@<TRIPOS>ATOM
      1 C         142.7059  138.7274  159.9580 C.3     1  UNL1        0.1106
      2 C         142.5994  137.7720  161.1094 C.3     1  UNL1        0.0400
      3 C         143.2845  138.0823  162.4072 C.3     1  UNL1        0.0743
      4 N         144.0761  139.3480  162.5536 N.3     1  UNL1       -0.2665
      5 C         144.1826  140.3035  161.4021 C.3     1  UNL1        0.1098
      6 C         143.4974  139.9932  160.1043 C.3     1  UNL1        0.1948
      7 F         143.6039  140.9486  158.9529 F       1  UNL1       -0.2340
      8 C         142.5996  137.3895  157.7334 C.3     1  UNL1        0.1149
      9 N         142.0207  138.4171  158.6601 N.am    1  UNL1       -0.2763
     10 C         140.7567  139.1346  158.2891 C.2     1  UNL1        0.2301
     11 O         140.0716  138.8243  156.9912 O.2     1  UNL1       -0.2745
     12 C         140.1779  140.1622  159.2158 C.3     1  UNL1        0.1116
     13 C         139.7589  139.7709  160.6020 C.ar    1  UNL1       -0.0130
     14 C         140.2116  140.5824  161.7794 C.ar    1  UNL1       -0.0022
     15 C         139.7926  140.1912  163.1655 C.ar    1  UNL1        0.0190
     16 C         138.9209  138.9884  163.3741 C.ar    1  UNL1        0.0862
     17 C         138.4683  138.1768  162.1967 C.ar    1  UNL1        0.0190
     18 C         138.8873  138.5681  160.8106 C.ar    1  UNL1       -0.0022
     19 N         138.5020  138.5971  164.7603 N.ar    1  UNL1       -0.1886
     20 C         138.0594  139.5338  165.8451 C.ar    1  UNL1        0.2258
     21 N         137.7359  138.7161  167.0603 N.ar    1  UNL1       -0.1045
     22 N         137.9786  137.2740  166.7265 N.ar    1  UNL1       -0.0222
     23 N         138.4520  137.2004  165.3051 N.ar    1  UNL1       -0.0385
     24 C         144.7612  139.6583  163.8514 C.3     1  UNL1        0.1008
     25 C         143.9789  139.6585  165.1312 C.ar    1  UNL1        0.0130
     26 C         143.0929  140.8210  165.4683 C.ar    1  UNL1        0.0001
     27 C         142.3105  140.8212  166.7482 C.ar    1  UNL1        0.0228
     28 C         142.4141  139.6590  167.6908 C.ar    1  UNL1        0.1526
     29 N         143.3002  138.4966  167.3536 N.ar    1  UNL1       -0.2401
     30 C         144.0825  138.4963  166.0738 C.ar    1  UNL1        0.0958
     31 C         141.6318  139.6593  168.9706 C.3     1  UNL1        0.4348
     32 F         140.8494  139.6595  170.2504 F       1  UNL1       -0.1644
     33 F         140.4841  140.3229  168.2689 F       1  UNL1       -0.1644
     34 F         142.7794  138.9956  169.6723 F       1  UNL1       -0.1644
@<TRIPOS>BOND
     1     8     9    1
     2     9    10   am
     3    10    11    2
     4    10    12    1
     5    12    13    1
     6    13    14   ar
     7    14    15   ar
     8    15    16   ar
     9    16    19    1
    10    19    20   ar
    11    20    21   ar
    12    21    22   ar
    13    22    23   ar
    14    16    17   ar
    15    17    18   ar
    16     1     9    1
    17     1     2    1
    18     2     3    1
    19     3     4    1
    20     4    24    1
    21    24    25    1
    22    25    26   ar
    23    26    27   ar
    24    27    28   ar
    25    28    31    1
    26    31    32    1
    27    31    33    1
    28    31    34    1
    29    28    29   ar
    30    29    30   ar
    31     4     5    1
    32     5     6    1
    33     6     7    1
    34    18    13   ar
    35     6     1    1
    36    23    19   ar
    37    30    25   ar
@<TRIPOS>MOLECULE
*****
 34 37 0 0 0
SMALL
GASTEIGER

@<TRIPOS>ATOM
      1 C         139.5719  140.3051  167.5557 C.3     1  UNL1        0.1106
      2 C         139.0376  139.0410  166.9505 C.3     1  UNL1        0.0400
      3 C         138.5983  139.0233  165.5163 C.3     1  UNL1        0.0743
      4 N         138.6933  140.2698  164.6874 N.3     1  UNL1       -0.2665
      5 C         139.2276  141.5341  165.2926 C.3     1  UNL1        0.1098
      6 C         139.6669  141.5517  166.7267 C.3     1  UNL1        0.1948
      7 F         140.2012  142.8159  167.3319 F       1  UNL1       -0.2340
      8 C         139.0811  140.8275  170.0529 C.3     1  UNL1        0.1149
      9 N         140.0111  140.3228  168.9898 N.am    1  UNL1       -0.2763
     10 C         141.3806  139.8358  169.3608 C.2     1  UNL1        0.2301
     11 O         141.8199  139.8535  170.7949 O.2     1  UNL1       -0.2745
     12 C         142.3106  139.3311  168.2977 C.3     1  UNL1        0.1116
     13 C         142.6795  140.2145  167.1428 C.ar    1  UNL1       -0.0130
     14 C         143.1047  141.6318  167.3886 C.ar    1  UNL1       -0.0022
     15 C         143.4736  142.5151  166.2338 C.ar    1  UNL1        0.0190
     16 C         143.4173  141.9811  164.8332 C.ar    1  UNL1        0.0862
     17 C         142.9921  140.5638  164.5874 C.ar    1  UNL1        0.0190
     18 C         142.6232  139.6805  165.7422 C.ar    1  UNL1       -0.0022
     19 N         143.7862  142.8645  163.6783 N.ar    1  UNL1       -0.1886
     20 C         144.0298  142.4160  162.2678 C.ar    1  UNL1        0.2258
     21 N         144.3704  143.6257  161.4490 N.ar    1  UNL1       -0.1045
     22 N         144.3373  144.8219  162.3534 N.ar    1  UNL1       -0.0222
     23 N         143.9762  144.3515  163.7312 N.ar    1  UNL1       -0.0385
     24 C         138.2540  140.2521  163.2533 C.3     1  UNL1        0.1008
     25 C         138.7558  141.2978  162.3022 C.ar    1  UNL1        0.0130
     26 C         140.1092  141.1512  161.6723 C.ar    1  UNL1        0.0001
     27 C         140.6111  142.1970  160.7212 C.ar    1  UNL1        0.0228
     28 C         139.7595  143.3894  160.4001 C.ar    1  UNL1        0.1526
     29 N         138.4061  143.5359  161.0300 N.ar    1  UNL1       -0.2401
     30 C         137.9043  142.4902  161.9811 C.ar    1  UNL1        0.0958
     31 C         140.2613  144.4351  159.4490 C.3     1  UNL1        0.4348
     32 F         140.7631  145.4809  158.4980 F       1  UNL1       -0.1644
     33 F         140.6698  143.3617  158.4842 F       1  UNL1       -0.1644
     34 F         139.8529  145.5085  160.4138 F       1  UNL1       -0.1644
@<TRIPOS>BOND
     1     8     9    1
     2     9    10   am
     3    10    11    2
     4    10    12    1
     5    12    13    1
     6    13    14   ar
     7    14    15   ar
     8    15    16   ar
     9    16    19    1
    10    19    20   ar
    11    20    21   ar
    12    21    22   ar
    13    22    23   ar
    14    16    17   ar
    15    17    18   ar
    16     1     9    1
    17     1     2    1
    18     2     3    1
    19     3     4    1
    20     4    24    1
    21    24    25    1
    22    25    26   ar
    23    26    27   ar
    24    27    28   ar
    25    28    31    1
    26    31    32    1
    27    31    33    1
    28    31    34    1
    29    28    29   ar
    30    29    30   ar
    31     4     5    1
    32     5     6    1
    33     6     7    1
    34    18    13   ar
    35     6     1    1
    36    23    19   ar
    37    30    25   ar
@<TRIPOS>MOLECULE
*****
 34 37 0 0 0
SMALL
GASTEIGER

@<TRIPOS>ATOM
      1 C         140.2839  141.7209  167.8404 C.3     1  UNL1        0.1106
      2 C         139.8697  140.3150  168.1594 C.3     1  UNL1        0.0400
      3 C         139.1202  139.5051  167.1433 C.3     1  UNL1        0.0743
      4 N         138.7849  140.1011  165.8083 N.3     1  UNL1       -0.2665
      5 C         139.1991  141.5072  165.4893 C.3     1  UNL1        0.1098
      6 C         139.9485  142.3170  166.5054 C.3     1  UNL1        0.1948
      7 F         140.3627  143.7230  166.1865 F       1  UNL1       -0.2340
      8 C         140.2930  143.4729  169.7589 C.3     1  UNL1        0.1149
      9 N         141.0333  142.5308  168.8565 N.am    1  UNL1       -0.2763
     10 C         142.5232  142.3986  168.9701 C.2     1  UNL1        0.2301
     11 O         143.2727  143.2085  169.9862 O.2     1  UNL1       -0.2745
     12 C         143.2635  141.4565  168.0677 C.3     1  UNL1        0.1116
     13 C         143.2553  141.6771  166.5840 C.ar    1  UNL1       -0.0130
     14 C         143.6139  143.0214  166.0236 C.ar    1  UNL1       -0.0022
     15 C         143.6056  143.2419  164.5399 C.ar    1  UNL1        0.0190
     16 C         143.2387  142.1180  163.6167 C.ar    1  UNL1        0.0862
     17 C         142.8801  140.7737  164.1771 C.ar    1  UNL1        0.0190
     18 C         142.8884  140.5532  165.6608 C.ar    1  UNL1       -0.0022
     19 N         143.2304  142.3386  162.1330 N.ar    1  UNL1       -0.1886
     20 C         142.7486  141.3641  161.0994 C.ar    1  UNL1        0.2258
     21 N         142.9229  141.9955  159.7500 N.ar    1  UNL1       -0.1045
     22 N         143.5125  143.3603  159.9496 N.ar    1  UNL1       -0.0222
     23 N         143.7025  143.5723  161.4223 N.ar    1  UNL1       -0.0385
     24 C         138.0354  139.2913  164.7923 C.3     1  UNL1        0.1008
     25 C         138.6080  139.0939  163.4200 C.ar    1  UNL1        0.0130
     26 C         139.8659  138.2969  163.2398 C.ar    1  UNL1        0.0001
     27 C         140.4386  138.0995  161.8674 C.ar    1  UNL1        0.0228
     28 C         139.7533  138.6991  160.6754 C.ar    1  UNL1        0.1526
     29 N         138.4953  139.4961  160.8558 N.ar    1  UNL1       -0.2401
     30 C         137.9227  139.6935  162.2280 C.ar    1  UNL1        0.0958
     31 C         140.3259  138.5018  159.3032 C.3     1  UNL1        0.4348
     32 F         140.8985  138.3044  157.9309 F       1  UNL1       -0.1644
     33 F         139.0191  138.9207  158.6976 F       1  UNL1       -0.1644
     34 F         141.6327  138.0828  159.9087 F       1  UNL1       -0.1644
@<TRIPOS>BOND
     1     8     9    1
     2     9    10   am
     3    10    11    2
     4    10    12    1
     5    12    13    1
     6    13    14   ar
     7    14    15   ar
     8    15    16   ar
     9    16    19    1
    10    19    20   ar
    11    20    21   ar
    12    21    22   ar
    13    22    23   ar
    14    16    17   ar
    15    17    18   ar
    16     1     9    1
    17     1     2    1
    18     2     3    1
    19     3     4    1
    20     4    24    1
    21    24    25    1
    22    25    26   ar
    23    26    27   ar
    24    27    28   ar
    25    28    31    1
    26    31    32    1
    27    31    33    1
    28    31    34    1
    29    28    29   ar
    30    29    30   ar
    31     4     5    1
    32     5     6    1
    33     6     7    1
    34    18    13   ar
    35     6     1    1
    36    23    19   ar
    37    30    25   ar
@<TRIPOS>MOLECULE
*****
 34 37 0 0 0
SMALL
GASTEIGER

@<TRIPOS>ATOM
      1 C         140.9188  139.7190  166.7280 C.3     1  UNL1        0.1106
      2 C         141.6904  139.3432  165.4978 C.3     1  UNL1        0.0400
      3 C         140.9955  138.6650  164.3546 C.3     1  UNL1        0.0743
      4 N         139.5289  138.3625  164.4415 N.3     1  UNL1       -0.2665
      5 C         138.7572  138.7383  165.6718 C.3     1  UNL1        0.1098
      6 C         139.4521  139.4165  166.8150 C.3     1  UNL1        0.1948
      7 F         138.6805  139.7923  168.0452 F       1  UNL1       -0.2340
      8 C         142.5600  139.6225  168.7398 C.3     1  UNL1        0.1149
      9 N         141.6138  140.3973  167.8712 N.am    1  UNL1       -0.2763
     10 C         141.3625  141.8504  168.1459 C.2     1  UNL1        0.2301
     11 O         142.0575  142.5287  169.2891 O.2     1  UNL1       -0.2745
     12 C         140.4163  142.6252  167.2774 C.3     1  UNL1        0.1116
     13 C         140.7880  142.9408  165.8588 C.ar    1  UNL1       -0.0130
     14 C         142.2311  142.9731  165.4509 C.ar    1  UNL1       -0.0022
     15 C         142.6026  143.2888  164.0324 C.ar    1  UNL1        0.0190
     16 C         141.5311  143.5721  163.0217 C.ar    1  UNL1        0.0862
     17 C         140.0880  143.5398  163.4295 C.ar    1  UNL1        0.0190
     18 C         139.7164  143.2241  164.8480 C.ar    1  UNL1       -0.0022
     19 N         141.9027  143.8877  161.6031 N.ar    1  UNL1       -0.1886
     20 C         142.9604  143.1970  160.7942 C.ar    1  UNL1        0.2258
     21 N         142.9933  143.8318  159.4356 N.ar    1  UNL1       -0.1045
     22 N         141.9560  144.9149  159.4048 N.ar    1  UNL1       -0.0222
     23 N         141.2820  144.9495  160.7444 N.ar    1  UNL1       -0.0385
     24 C         138.8339  137.6842  163.2983 C.3     1  UNL1        0.1008
     25 C         138.7562  138.3591  161.9610 C.ar    1  UNL1        0.0130
     26 C         137.6103  139.2753  161.6488 C.ar    1  UNL1        0.0001
     27 C         137.5326  139.9503  160.3114 C.ar    1  UNL1        0.0228
     28 C         138.6009  139.7091  159.2864 C.ar    1  UNL1        0.1526
     29 N         139.7468  138.7929  159.5987 N.ar    1  UNL1       -0.2401
     30 C         139.8245  138.1180  160.9360 C.ar    1  UNL1        0.0958
     31 C         138.5232  140.3840  157.9491 C.3     1  UNL1        0.4348
     32 F         138.4455  141.0590  156.6119 F       1  UNL1       -0.1644
     33 F         139.0983  139.1610  157.2985 F       1  UNL1       -0.1644
     34 F         137.9481  141.6071  158.5998 F       1  UNL1       -0.1644
@<TRIPOS>BOND
     1     8     9    1
     2     9    10   am
     3    10    11    2
     4    10    12    1
     5    12    13    1
     6    13    14   ar
     7    14    15   ar
     8    15    16   ar
     9    16    19    1
    10    19    20   ar
    11    20    21   ar
    12    21    22   ar
    13    22    23   ar
    14    16    17   ar
    15    17    18   ar
    16     1     9    1
    17     1     2    1
    18     2     3    1
    19     3     4    1
    20     4    24    1
    21    24    25    1
    22    25    26   ar
    23    26    27   ar
    24    27    28   ar
    25    28    31    1
    26    31    32    1
    27    31    33    1
    28    31    34    1
    29    28    29   ar
    30    29    30   ar
    31     4     5    1
    32     5     6    1
    33     6     7    1
    34    18    13   ar
    35     6     1    1
    36    23    19   ar
    37    30    25   ar
