@<TRIPOS>MOLECULE
*****
 27 30 0 0 0
SMALL
GASTEIGER

@<TRIPOS>ATOM
      1 C         139.2661  141.8492  164.6007 C.ar    1  UNL1        0.0182
      2 C         138.0912  142.7384  164.3195 C.ar    1  UNL1        0.0023
      3 C         137.7616  143.1216  162.9073 C.ar    1  UNL1        0.0367
      4 C         138.6069  142.6156  161.7762 C.ar    1  UNL1        0.1385
      5 C         139.7818  141.7264  162.0573 C.ar    1  UNL1        0.0367
      6 C         140.1113  141.3432  163.4696 C.ar    1  UNL1        0.0023
      7 C         139.0787  140.1773  166.5805 C.3     1  UNL1        0.0963
      8 S         139.4082  139.7941  167.9928 S.3     1  UNL1       -0.1075
      9 C         140.2546  140.6996  168.8376 C.ar    1  UNL1        0.0593
     10 C         140.5841  140.3164  170.2499 C.ar    1  UNL1        0.0092
     11 C         141.4305  141.2219  171.0946 C.ar    1  UNL1        0.0007
     12 C         141.9474  142.5106  170.5271 C.ar    1  UNL1        0.0031
     13 C         141.6179  142.8938  169.1149 C.ar    1  UNL1        0.0374
     14 C         140.7715  141.9883  168.2701 C.ar    1  UNL1        0.1444
     15 O         140.4420  142.3715  166.8578 O.3     1  UNL1       -0.4734
     16 C         139.5956  141.4660  166.0130 C.3     1  UNL1        0.1982
     17 C         138.8520  138.0912  165.0486 C.3     1  UNL1        0.0010
     18 C         138.2323  139.2718  165.7357 C.3     1  UNL1        0.0151
     19 O         138.2774  142.9988  160.3638 O.3     1  UNL1       -0.4754
     20 C         139.3793  143.3038  159.3929 C.3     1  UNL1        0.2068
     21 C         140.0969  144.6192  159.4618 C.3     1  UNL1        0.0646
     22 C         141.4781  144.6906  160.0426 C.3     1  UNL1        0.0759
     23 N         141.6684  144.6646  161.5302 N.3     1  UNL1       -0.2726
     24 C         142.7727  143.9647  162.2657 C.3     1  UNL1        0.0721
     25 C         142.5748  144.2015  163.7336 C.3     1  UNL1        0.0188
     26 C         141.3482  145.0478  163.9054 C.3     1  UNL1        0.0188
     27 C         140.7880  145.3339  162.5435 C.3     1  UNL1        0.0721
@<TRIPOS>BOND
     1    17    18    1
     2     7    18    1
     3     7     8    1
     4     8     9    1
     5     9    10   ar
     6    10    11   ar
     7    11    12   ar
     8    12    13   ar
     9    13    14   ar
    10    14    15    1
    11    15    16    1
    12    16     1    1
    13     1     2   ar
    14     2     3   ar
    15     3     4   ar
    16     4    19    1
    17    19    20    1
    18    20    21    1
    19    21    22    1
    20    22    23    1
    21    23    24    1
    22    24    25    1
    23    25    26    1
    24    26    27    1
    25     4     5   ar
    26     5     6   ar
    27    16     7    1
    28     6     1   ar
    29    14     9   ar
    30    27    23    1
@<TRIPOS>MOLECULE
*****
 27 30 0 0 0
SMALL
GASTEIGER

@<TRIPOS>ATOM
      1 C         139.2582  141.9733  164.6977 C.ar    1  UNL1        0.0182
      2 C         138.0388  142.8148  164.4632 C.ar    1  UNL1        0.0023
      3 C         137.6804  143.2444  163.0714 C.ar    1  UNL1        0.0367
      4 C         138.5412  142.8323  161.9143 C.ar    1  UNL1        0.1385
      5 C         139.7605  141.9908  162.1488 C.ar    1  UNL1        0.0367
      6 C         140.1190  141.5613  163.5405 C.ar    1  UNL1        0.0023
      7 C         139.1267  140.2283  166.6180 C.3     1  UNL1        0.0963
      8 S         139.4851  139.7987  168.0098 S.3     1  UNL1       -0.1075
      9 C         140.3336  140.6847  168.8731 C.ar    1  UNL1        0.0593
     10 C         140.6920  140.2552  170.2648 C.ar    1  UNL1        0.0092
     11 C         141.5404  141.1412  171.1281 C.ar    1  UNL1        0.0007
     12 C         142.0303  142.4567  170.5995 C.ar    1  UNL1        0.0031
     13 C         141.6719  142.8863  169.2078 C.ar    1  UNL1        0.0374
     14 C         140.8235  142.0003  168.3446 C.ar    1  UNL1        0.1444
     15 O         140.4650  142.4298  166.9528 O.3     1  UNL1       -0.4734
     16 C         139.6167  141.5438  166.0895 C.3     1  UNL1        0.1982
     17 C         138.8046  138.0142  165.2973 C.3     1  UNL1        0.0010
     18 C         138.2783  139.3422  165.7547 C.3     1  UNL1        0.0151
     19 O         138.1827  143.2618  160.5224 O.3     1  UNL1       -0.4754
     20 C         138.9555  142.7314  159.3514 C.3     1  UNL1        0.2068
     21 C         138.2813  141.8435  158.3479 C.3     1  UNL1        0.0646
     22 C         138.5385  140.3658  158.3614 C.3     1  UNL1        0.0759
     23 N         138.5057  139.6106  159.6569 N.3     1  UNL1       -0.2726
     24 C         137.3875  139.6232  160.6568 C.3     1  UNL1        0.0721
     25 C         137.7760  138.7306  161.7980 C.3     1  UNL1        0.0188
     26 C         139.1343  138.1663  161.5035 C.3     1  UNL1        0.0188
     27 C         139.5853  138.7103  160.1803 C.3     1  UNL1        0.0721
@<TRIPOS>BOND
     1    17    18    1
     2     7    18    1
     3     7     8    1
     4     8     9    1
     5     9    10   ar
     6    10    11   ar
     7    11    12   ar
     8    12    13   ar
     9    13    14   ar
    10    14    15    1
    11    15    16    1
    12    16     1    1
    13     1     2   ar
    14     2     3   ar
    15     3     4   ar
    16     4    19    1
    17    19    20    1
    18    20    21    1
    19    21    22    1
    20    22    23    1
    21    23    24    1
    22    24    25    1
    23    25    26    1
    24    26    27    1
    25     4     5   ar
    26     5     6   ar
    27    16     7    1
    28     6     1   ar
    29    14     9   ar
    30    27    23    1
@<TRIPOS>MOLECULE
*****
 27 30 0 0 0
SMALL
GASTEIGER

@<TRIPOS>ATOM
      1 C         140.7335  139.2092  164.9169 C.ar    1  UNL1        0.0182
      2 C         140.5496  140.1607  163.7719 C.ar    1  UNL1        0.0023
      3 C         140.6185  139.6579  162.3604 C.ar    1  UNL1        0.0367
      4 C         140.8712  138.2036  162.0939 C.ar    1  UNL1        0.1385
      5 C         141.0551  137.2521  163.2388 C.ar    1  UNL1        0.0367
      6 C         140.9862  137.7549  164.6503 C.ar    1  UNL1        0.0023
      7 C         139.3723  139.6431  167.0869 C.3     1  UNL1        0.0963
      8 S         139.3034  140.1460  168.4984 S.3     1  UNL1       -0.1075
      9 C         140.5268  140.7178  169.1515 C.ar    1  UNL1        0.0593
     10 C         140.4578  141.2206  170.5630 C.ar    1  UNL1        0.0092
     11 C         141.6811  141.7925  171.2160 C.ar    1  UNL1        0.0007
     12 C         142.9734  141.8614  170.4575 C.ar    1  UNL1        0.0031
     13 C         143.0423  141.3586  169.0460 C.ar    1  UNL1        0.0374
     14 C         141.8190  140.7868  168.3930 C.ar    1  UNL1        0.1444
     15 O         141.8879  140.2839  166.9814 O.3     1  UNL1       -0.4734
     16 C         140.6646  139.7121  166.3284 C.3     1  UNL1        0.1982
     17 C         137.6915  137.6856  166.7814 C.3     1  UNL1        0.0010
     18 C         138.1489  139.0713  166.4338 C.3     1  UNL1        0.0151
     19 O         140.9401  137.7007  160.6823 O.3     1  UNL1       -0.4754
     20 C         142.0300  138.1775  159.7686 C.3     1  UNL1        0.2068
     21 C         143.4249  138.3512  160.2920 C.3     1  UNL1        0.0646
     22 C         143.9335  139.7210  160.6313 C.3     1  UNL1        0.0759
     23 N         144.3748  140.0318  162.0308 N.3     1  UNL1       -0.2726
     24 C         145.0307  141.3014  162.4871 C.3     1  UNL1        0.0721
     25 C         145.2989  141.1819  163.9580 C.3     1  UNL1        0.0188
     26 C         144.8087  139.8385  164.4110 C.3     1  UNL1        0.0188
     27 C         144.2376  139.1277  163.2199 C.3     1  UNL1        0.0721
@<TRIPOS>BOND
     1    17    18    1
     2     7    18    1
     3     7     8    1
     4     8     9    1
     5     9    10   ar
     6    10    11   ar
     7    11    12   ar
     8    12    13   ar
     9    13    14   ar
    10    14    15    1
    11    15    16    1
    12    16     1    1
    13     1     2   ar
    14     2     3   ar
    15     3     4   ar
    16     4    19    1
    17    19    20    1
    18    20    21    1
    19    21    22    1
    20    22    23    1
    21    23    24    1
    22    24    25    1
    23    25    26    1
    24    26    27    1
    25     4     5   ar
    26     5     6   ar
    27    16     7    1
    28     6     1   ar
    29    14     9   ar
    30    27    23    1
@<TRIPOS>MOLECULE
*****
 27 30 0 0 0
SMALL
GASTEIGER

@<TRIPOS>ATOM
      1 C         142.1729  142.2501  164.1098 C.ar    1  UNL1        0.0182
      2 C         143.0740  143.4363  163.9346 C.ar    1  UNL1        0.0023
      3 C         143.1561  144.1259  162.6050 C.ar    1  UNL1        0.0367
      4 C         142.3371  143.6292  161.4508 C.ar    1  UNL1        0.1385
      5 C         141.4360  142.4429  161.6260 C.ar    1  UNL1        0.0367
      6 C         141.3538  141.7533  162.9555 C.ar    1  UNL1        0.0023
      7 C         142.8109  140.2628  165.6570 C.3     1  UNL1        0.0963
      8 S         142.7289  139.5732  166.9865 S.3     1  UNL1       -0.1075
      9 C         141.9267  140.1814  168.0986 C.ar    1  UNL1        0.0593
     10 C         141.8446  139.4918  169.4282 C.ar    1  UNL1        0.0092
     11 C         141.0424  140.1000  170.5402 C.ar    1  UNL1        0.0007
     12 C         140.3223  141.3977  170.3226 C.ar    1  UNL1        0.0031
     13 C         140.4043  142.0872  168.9931 C.ar    1  UNL1        0.0374
     14 C         141.2065  141.4791  167.8811 C.ar    1  UNL1        0.1444
     15 O         141.2886  142.1686  166.5515 O.3     1  UNL1       -0.4734
     16 C         142.0908  141.5605  165.4395 C.3     1  UNL1        0.1982
     17 C         145.0474  140.0493  164.3521 C.3     1  UNL1        0.0010
     18 C         143.6132  139.6546  164.5449 C.3     1  UNL1        0.0151
     19 O         142.4192  144.3187  160.1211 O.3     1  UNL1       -0.4754
     20 C         141.3642  145.3079  159.7229 C.3     1  UNL1        0.2068
     21 C         140.0234  145.2858  160.3950 C.3     1  UNL1        0.0646
     22 C         139.8578  145.8891  161.7583 C.3     1  UNL1        0.0759
     23 N         139.2691  145.0752  162.8722 N.3     1  UNL1       -0.2726
     24 C         139.7437  145.0542  164.2950 C.3     1  UNL1        0.0721
     25 C         138.8704  144.1053  165.0611 C.3     1  UNL1        0.0188
     26 C         137.8559  143.5398  164.1118 C.3     1  UNL1        0.0188
     27 C         138.1024  144.1392  162.7589 C.3     1  UNL1        0.0721
@<TRIPOS>BOND
     1    17    18    1
     2     7    18    1
     3     7     8    1
     4     8     9    1
     5     9    10   ar
     6    10    11   ar
     7    11    12   ar
     8    12    13   ar
     9    13    14   ar
    10    14    15    1
    11    15    16    1
    12    16     1    1
    13     1     2   ar
    14     2     3   ar
    15     3     4   ar
    16     4    19    1
    17    19    20    1
    18    20    21    1
    19    21    22    1
    20    22    23    1
    21    23    24    1
    22    24    25    1
    23    25    26    1
    24    26    27    1
    25     4     5   ar
    26     5     6   ar
    27    16     7    1
    28     6     1   ar
    29    14     9   ar
    30    27    23    1
@<TRIPOS>MOLECULE
*****
 27 30 0 0 0
SMALL
GASTEIGER

@<TRIPOS>ATOM
      1 C         141.0680  141.1253  164.2689 C.ar    1  UNL1        0.0182
      2 C         141.9495  140.1416  163.5580 C.ar    1  UNL1        0.0023
      3 C         142.0949  140.2062  162.0665 C.ar    1  UNL1        0.0367
      4 C         141.3589  141.2544  161.2859 C.ar    1  UNL1        0.1385
      5 C         140.4774  142.2381  161.9969 C.ar    1  UNL1        0.0367
      6 C         140.3319  142.1735  163.4884 C.ar    1  UNL1        0.0023
      7 C         139.8310  140.2337  166.3725 C.3     1  UNL1        0.0963
      8 S         139.6856  140.1690  167.8640 S.3     1  UNL1       -0.1075
      9 C         140.6318  140.9314  168.7436 C.ar    1  UNL1        0.0593
     10 C         140.4863  140.8667  170.2351 C.ar    1  UNL1        0.0092
     11 C         141.4325  141.6290  171.1146 C.ar    1  UNL1        0.0007
     12 C         142.5241  142.4560  170.5027 C.ar    1  UNL1        0.0031
     13 C         142.6695  142.5206  169.0112 C.ar    1  UNL1        0.0374
     14 C         141.7234  141.7583  168.1316 C.ar    1  UNL1        0.1444
     15 O         141.8688  141.8229  166.6401 O.3     1  UNL1       -0.4734
     16 C         140.9226  141.0606  165.7605 C.3     1  UNL1        0.1982
     17 C         139.1531  138.0304  165.1742 C.3     1  UNL1        0.0010
     18 C         138.8848  139.4714  165.4929 C.3     1  UNL1        0.0151
     19 O         141.5043  141.3191  159.7944 O.3     1  UNL1       -0.4754
     20 C         142.8177  141.7111  159.1851 C.3     1  UNL1        0.2068
     21 C         143.5933  142.8631  159.7519 C.3     1  UNL1        0.0646
     22 C         144.7709  142.6073  160.6451 C.3     1  UNL1        0.0759
     23 N         144.6332  142.7625  162.1307 N.3     1  UNL1       -0.2726
     24 C         143.7839  143.7780  162.8362 C.3     1  UNL1        0.0721
     25 C         143.9464  143.5725  164.3131 C.3     1  UNL1        0.0188
     26 C         144.8961  142.4301  164.5205 C.3     1  UNL1        0.0188
     27 C         145.3206  141.9295  163.1717 C.3     1  UNL1        0.0721
@<TRIPOS>BOND
     1    17    18    1
     2     7    18    1
     3     7     8    1
     4     8     9    1
     5     9    10   ar
     6    10    11   ar
     7    11    12   ar
     8    12    13   ar
     9    13    14   ar
    10    14    15    1
    11    15    16    1
    12    16     1    1
    13     1     2   ar
    14     2     3   ar
    15     3     4   ar
    16     4    19    1
    17    19    20    1
    18    20    21    1
    19    21    22    1
    20    22    23    1
    21    23    24    1
    22    24    25    1
    23    25    26    1
    24    26    27    1
    25     4     5   ar
    26     5     6   ar
    27    16     7    1
    28     6     1   ar
    29    14     9   ar
    30    27    23    1
@<TRIPOS>MOLECULE
*****
 27 30 0 0 0
SMALL
GASTEIGER

@<TRIPOS>ATOM
      1 C         139.3841  141.9929  164.7959 C.ar    1  UNL1        0.0182
      2 C         140.2428  141.5571  163.6458 C.ar    1  UNL1        0.0023
      3 C         139.8795  141.9546  162.2458 C.ar    1  UNL1        0.0367
      4 C         138.6576  142.7880  161.9960 C.ar    1  UNL1        0.1385
      5 C         137.7990  143.2237  163.1462 C.ar    1  UNL1        0.0367
      6 C         138.1622  142.8262  164.5461 C.ar    1  UNL1        0.0023
      7 C         139.2173  140.3166  166.7739 C.3     1  UNL1        0.0963
      8 S         139.5806  139.9190  168.1739 S.3     1  UNL1       -0.1075
      9 C         140.4740  140.8000  168.9959 C.ar    1  UNL1        0.0593
     10 C         140.8373  140.4024  170.3958 C.ar    1  UNL1        0.0092
     11 C         141.7307  141.2834  171.2178 C.ar    1  UNL1        0.0007
     12 C         142.2608  142.5621  170.6398 C.ar    1  UNL1        0.0031
     13 C         141.8975  142.9597  169.2399 C.ar    1  UNL1        0.0374
     14 C         141.0041  142.0787  168.4179 C.ar    1  UNL1        0.1444
     15 O         140.6408  142.4763  167.0179 O.3     1  UNL1       -0.4734
     16 C         139.7474  141.5952  166.1959 C.3     1  UNL1        0.1982
     17 C         137.8032  138.1512  166.5258 C.3     1  UNL1        0.0010
     18 C         138.3239  139.4356  165.9519 C.3     1  UNL1        0.0151
     19 O         138.2943  143.1856  160.5960 O.3     1  UNL1       -0.4754
     20 C         139.3645  143.3249  159.5543 C.3     1  UNL1        0.2068
     21 C         140.1177  144.6152  159.4207 C.3     1  UNL1        0.0646
     22 C         141.2824  144.9005  160.3218 C.3     1  UNL1        0.0759
     23 N         142.4696  143.9837  160.3260 N.3     1  UNL1       -0.2726
     24 C         143.0814  143.3278  159.1236 C.3     1  UNL1        0.0721
     25 C         144.2434  142.5006  159.5877 C.3     1  UNL1        0.0188
     26 C         144.3499  142.6452  161.0770 C.3     1  UNL1        0.0188
     27 C         143.2536  143.5618  161.5332 C.3     1  UNL1        0.0721
@<TRIPOS>BOND
     1    17    18    1
     2     7    18    1
     3     7     8    1
     4     8     9    1
     5     9    10   ar
     6    10    11   ar
     7    11    12   ar
     8    12    13   ar
     9    13    14   ar
    10    14    15    1
    11    15    16    1
    12    16     1    1
    13     1     2   ar
    14     2     3   ar
    15     3     4   ar
    16     4    19    1
    17    19    20    1
    18    20    21    1
    19    21    22    1
    20    22    23    1
    21    23    24    1
    22    24    25    1
    23    25    26    1
    24    26    27    1
    25     4     5   ar
    26     5     6   ar
    27    16     7    1
    28     6     1   ar
    29    14     9   ar
    30    27    23    1
@<TRIPOS>MOLECULE
*****
 27 30 0 0 0
SMALL
GASTEIGER

@<TRIPOS>ATOM
      1 C         140.0373  142.3250  164.7152 C.ar    1  UNL1        0.0182
      2 C         140.1318  141.3243  163.6018 C.ar    1  UNL1        0.0023
      3 C         139.4513  141.5927  162.2924 C.ar    1  UNL1        0.0367
      4 C         138.6762  142.8618  162.0963 C.ar    1  UNL1        0.1385
      5 C         138.5817  143.8626  163.2096 C.ar    1  UNL1        0.0367
      6 C         139.2622  143.5942  164.5191 C.ar    1  UNL1        0.0023
      7 C         142.1851  142.3287  166.1771 C.3     1  UNL1        0.0963
      8 S         142.8657  142.0603  167.4865 S.3     1  UNL1       -0.1075
      9 C         142.0791  141.5196  168.6437 C.ar    1  UNL1        0.0593
     10 C         142.7597  141.2512  169.9532 C.ar    1  UNL1        0.0092
     11 C         141.9731  140.7106  171.1103 C.ar    1  UNL1        0.0007
     12 C         140.5059  140.4384  170.9579 C.ar    1  UNL1        0.0031
     13 C         139.8253  140.7069  169.6485 C.ar    1  UNL1        0.0374
     14 C         140.6119  141.2475  168.4914 C.ar    1  UNL1        0.1444
     15 O         139.9313  141.5159  167.1819 O.3     1  UNL1       -0.4734
     16 C         140.7179  142.0565  166.0248 C.3     1  UNL1        0.1982
     17 C         144.3182  143.4883  165.2522 C.3     1  UNL1        0.0010
     18 C         142.9717  142.8693  165.0199 C.3     1  UNL1        0.0151
     19 O         137.9956  143.1303  160.7867 O.3     1  UNL1       -0.4754
     20 C         138.3967  142.3629  159.5619 C.3     1  UNL1        0.2068
     21 C         139.1398  143.0512  158.4555 C.3     1  UNL1        0.0646
     22 C         140.0850  144.1723  158.7710 C.3     1  UNL1        0.0759
     23 N         141.1108  144.0065  159.8528 N.3     1  UNL1       -0.2726
     24 C         141.3425  144.9454  160.9995 C.3     1  UNL1        0.0721
     25 C         142.4599  144.3919  161.8333 C.3     1  UNL1        0.0188
     26 C         142.9187  143.1109  161.2020 C.3     1  UNL1        0.0188
     27 C         142.0849  142.8727  159.9779 C.3     1  UNL1        0.0721
@<TRIPOS>BOND
     1    17    18    1
     2     7    18    1
     3     7     8    1
     4     8     9    1
     5     9    10   ar
     6    10    11   ar
     7    11    12   ar
     8    12    13   ar
     9    13    14   ar
    10    14    15    1
    11    15    16    1
    12    16     1    1
    13     1     2   ar
    14     2     3   ar
    15     3     4   ar
    16     4    19    1
    17    19    20    1
    18    20    21    1
    19    21    22    1
    20    22    23    1
    21    23    24    1
    22    24    25    1
    23    25    26    1
    24    26    27    1
    25     4     5   ar
    26     5     6   ar
    27    16     7    1
    28     6     1   ar
    29    14     9   ar
    30    27    23    1
@<TRIPOS>MOLECULE
*****
 27 30 0 0 0
SMALL
GASTEIGER

@<TRIPOS>ATOM
      1 C         139.9393  143.5533  164.8954 C.ar    1  UNL1        0.0182
      2 C         138.6061  143.8034  164.2550 C.ar    1  UNL1        0.0023
      3 C         138.5078  144.6907  163.0495 C.ar    1  UNL1        0.0367
      4 C         139.7427  145.3278  162.4846 C.ar    1  UNL1        0.1385
      5 C         141.0758  145.0777  163.1250 C.ar    1  UNL1        0.0367
      6 C         141.1741  144.1904  164.3304 C.ar    1  UNL1        0.0023
      7 C         139.8385  141.1859  165.9609 C.3     1  UNL1        0.0963
      8 S         139.9367  140.2986  167.1663 S.3     1  UNL1       -0.1075
      9 C         140.2341  140.8914  168.5117 C.ar    1  UNL1        0.0593
     10 C         140.3323  140.0041  169.7171 C.ar    1  UNL1        0.0092
     11 C         140.6296  140.5969  171.0625 C.ar    1  UNL1        0.0007
     12 C         140.8287  142.0770  171.2025 C.ar    1  UNL1        0.0031
     13 C         140.7304  142.9643  169.9971 C.ar    1  UNL1        0.0374
     14 C         140.4331  142.3715  168.6517 C.ar    1  UNL1        0.1444
     15 O         140.3349  143.2588  167.4463 O.3     1  UNL1       -0.4734
     16 C         140.0375  142.6660  166.1009 C.3     1  UNL1        0.1982
     17 C         138.5135  139.5083  164.4843 C.3     1  UNL1        0.0010
     18 C         139.5411  140.5930  164.6154 C.3     1  UNL1        0.0151
     19 O         139.6444  146.2151  161.2791 O.3     1  UNL1       -0.4754
     20 C         139.9489  145.6660  159.9168 C.3     1  UNL1        0.2068
     21 C         141.3101  145.1107  159.6191 C.3     1  UNL1        0.0646
     22 C         141.4938  143.6333  159.4360 C.3     1  UNL1        0.0759
     23 N         140.3887  142.6886  159.8049 N.3     1  UNL1       -0.2726
     24 C         140.2193  142.0039  161.1288 C.3     1  UNL1        0.0721
     25 C         138.9847  141.1549  161.0570 C.3     1  UNL1        0.0188
     26 C         138.3911  141.3149  159.6887 C.3     1  UNL1        0.0188
     27 C         139.2588  142.2628  158.9149 C.3     1  UNL1        0.0721
@<TRIPOS>BOND
     1    17    18    1
     2     7    18    1
     3     7     8    1
     4     8     9    1
     5     9    10   ar
     6    10    11   ar
     7    11    12   ar
     8    12    13   ar
     9    13    14   ar
    10    14    15    1
    11    15    16    1
    12    16     1    1
    13     1     2   ar
    14     2     3   ar
    15     3     4   ar
    16     4    19    1
    17    19    20    1
    18    20    21    1
    19    21    22    1
    20    22    23    1
    21    23    24    1
    22    24    25    1
    23    25    26    1
    24    26    27    1
    25     4     5   ar
    26     5     6   ar
    27    16     7    1
    28     6     1   ar
    29    14     9   ar
    30    27    23    1
@<TRIPOS>MOLECULE
*****
 27 30 0 0 0
SMALL
GASTEIGER

@<TRIPOS>ATOM
      1 C         142.0812  139.9270  164.3959 C.ar    1  UNL1        0.0182
      2 C         141.5516  140.7729  163.2761 C.ar    1  UNL1        0.0023
      3 C         141.8915  140.4343  161.8549 C.ar    1  UNL1        0.0367
      4 C         142.7610  139.2498  161.5535 C.ar    1  UNL1        0.1385
      5 C         143.2905  138.4039  162.6733 C.ar    1  UNL1        0.0367
      6 C         142.9506  138.7424  164.0945 C.ar    1  UNL1        0.0023
      7 C         140.4834  139.7309  166.4352 C.3     1  UNL1        0.0963
      8 S         140.1434  140.0695  167.8564 S.3     1  UNL1       -0.1075
      9 C         141.0612  140.9429  168.6595 C.ar    1  UNL1        0.0593
     10 C         140.7213  141.2815  170.0806 C.ar    1  UNL1        0.0092
     11 C         141.6390  142.1548  170.8837 C.ar    1  UNL1        0.0007
     12 C         142.8968  142.6896  170.2655 C.ar    1  UNL1        0.0031
     13 C         143.2368  142.3510  168.8444 C.ar    1  UNL1        0.0374
     14 C         142.3190  141.4776  168.0414 C.ar    1  UNL1        0.1444
     15 O         142.6590  141.1390  166.6201 O.3     1  UNL1       -0.4734
     16 C         141.7412  140.2656  165.8171 C.3     1  UNL1        0.1982
     17 C         138.1693  138.5947  166.1129 C.3     1  UNL1        0.0010
     18 C         139.5656  138.8575  165.6321 C.3     1  UNL1        0.0151
     19 O         143.1010  138.9111  160.1323 O.3     1  UNL1       -0.4754
     20 C         142.1196  138.1558  159.2860 C.3     1  UNL1        0.2068
     21 C         141.1093  138.8998  158.4640 C.3     1  UNL1        0.0646
     22 C         139.6442  138.6649  158.6834 C.3     1  UNL1        0.0759
     23 N         139.0137  139.0323  159.9939 N.3     1  UNL1       -0.2726
     24 C         138.9103  138.1481  161.2012 C.3     1  UNL1        0.0721
     25 C         138.2085  138.9177  162.2807 C.3     1  UNL1        0.0188
     26 C         137.8781  140.2775  161.7406 C.3     1  UNL1        0.0188
     27 C         138.3758  140.3483  160.3272 C.3     1  UNL1        0.0721
@<TRIPOS>BOND
     1    17    18    1
     2     7    18    1
     3     7     8    1
     4     8     9    1
     5     9    10   ar
     6    10    11   ar
     7    11    12   ar
     8    12    13   ar
     9    13    14   ar
    10    14    15    1
    11    15    16    1
    12    16     1    1
    13     1     2   ar
    14     2     3   ar
    15     3     4   ar
    16     4    19    1
    17    19    20    1
    18    20    21    1
    19    21    22    1
    20    22    23    1
    21    23    24    1
    22    24    25    1
    23    25    26    1
    24    26    27    1
    25     4     5   ar
    26     5     6   ar
    27    16     7    1
    28     6     1   ar
    29    14     9   ar
    30    27    23    1
