@<TRIPOS>MOLECULE
*****
 35 38 0 0 0
SMALL
GASTEIGER

@<TRIPOS>ATOM
      1 C         142.6443  137.7989  161.9078 C.ar    1  UNL1        0.0505
      2 C         141.2573  137.6452  162.4579 C.ar    1  UNL1        0.0159
      3 C         140.9248  138.1876  163.8162 C.ar    1  UNL1        0.0158
      4 C         141.9793  138.8837  164.6246 C.ar    1  UNL1        0.0480
      5 C         143.3663  139.0375  164.0745 C.ar    1  UNL1        0.0158
      6 C         143.6988  138.4951  162.7161 C.ar    1  UNL1        0.0159
      7 N         141.6467  139.4261  165.9830 N.pl3   1  UNL1       -0.3041
      8 C         142.7438  139.8919  166.8938 C.3     1  UNL1        0.1123
      9 C         142.4112  140.4342  168.2521 C.3     1  UNL1        0.1149
     10 N         140.9816  140.5109  168.6997 N.am    1  UNL1       -0.2741
     11 C         140.6490  141.0533  170.0582 C.2     1  UNL1        0.2526
     12 O         139.2194  141.1299  170.5057 O.2     1  UNL1       -0.2723
     13 C         139.8845  140.0451  167.7889 C.3     1  UNL1        0.1149
     14 C         140.2171  139.5028  166.4306 C.3     1  UNL1        0.1123
     15 C         141.7460  141.5190  170.9689 C.3     1  UNL1        0.1869
     16 C         142.3623  142.8720  170.7700 C.3     1  UNL1        0.0417
     17 O         142.2268  140.6317  172.0787 O.3     1  UNL1       -0.3758
     18 H         141.7274  139.8003  172.0674 H       1  UNL1        0.2110
     19 N         142.9768  137.2565  160.5494 N.pl3   1  UNL1       -0.2825
     20 H         143.2552  136.3176  160.4489 H       1  UNL1        0.1551
     21 C         142.6114  140.5120  158.3093 C.ar    1  UNL1        0.1030
     22 C         142.7022  139.9212  156.9336 C.ar    1  UNL1        0.0414
     23 C         142.8845  138.4421  156.7631 C.ar    1  UNL1        0.1034
     24 N         142.9760  137.5539  157.9684 N.ar    1  UNL1       -0.2120
     25 C         142.8853  138.1447  159.3441 C.ar    1  UNL1        0.2207
     26 N         142.7030  139.6238  159.5146 N.ar    1  UNL1       -0.2120
     27 C         140.6316  145.1976  159.7262 C.3     1  UNL1        0.0718
     28 C         141.5191  144.1448  159.1310 C.ar    1  UNL1        0.1208
     29 N         142.7781  144.3897  158.3531 N.ar    1  UNL1       -0.2293
     30 C         143.3405  143.0586  157.9507 C.ar    1  UNL1        0.1188
     31 C         142.4291  141.9912  158.4798 C.ar    1  UNL1        0.0981
     32 N         141.3034  142.6625  159.2093 N.ar    1  UNL1       -0.3155
     33 C         140.1624  141.9726  159.8964 C.3     1  UNL1        0.0868
     34 C         138.8881  141.7070  159.1511 C.3     1  UNL1        0.0245
     35 C         140.2958  141.5484  161.3290 C.3     1  UNL1        0.0245
@<TRIPOS>BOND
     1    27    28    1
     2    28    29   ar
     3    29    30   ar
     4    30    31   ar
     5    31    21    1
     6    21    22   ar
     7    22    23   ar
     8    23    24   ar
     9    24    25   ar
    10    25    19    1
    11    19     1    1
    12     1     2   ar
    13     2     3   ar
    14     3     4   ar
    15     4     7    1
    16     7     8    1
    17     8     9    1
    18     9    10    1
    19    10    11   am
    20    11    12    2
    21    11    15    1
    22    15    16    1
    23    15    17    1
    24    10    13    1
    25    13    14    1
    26     4     5   ar
    27     5     6   ar
    28    25    26   ar
    29    31    32   ar
    30    32    33    1
    31    33    34    1
    32    33    35    1
    33    32    28   ar
    34    26    21   ar
    35     6     1   ar
    36    14     7    1
    37    19    20    1
    38    17    18    1
@<TRIPOS>MOLECULE
*****
 35 38 0 0 0
SMALL
GASTEIGER

@<TRIPOS>ATOM
      1 C         138.4516  142.0287  160.5793 C.ar    1  UNL1        0.0505
      2 C         138.0488  140.5914  160.7284 C.ar    1  UNL1        0.0159
      3 C         138.6789  139.5421  159.8613 C.ar    1  UNL1        0.0158
      4 C         139.7118  139.9300  158.8451 C.ar    1  UNL1        0.0480
      5 C         140.1146  141.3672  158.6959 C.ar    1  UNL1        0.0158
      6 C         139.4845  142.4166  159.5630 C.ar    1  UNL1        0.0159
      7 N         140.3419  138.8806  157.9779 N.pl3   1  UNL1       -0.3041
      8 C         141.7467  138.4291  158.2477 C.3     1  UNL1        0.1123
      9 C         142.3767  137.3798  157.3806 C.3     1  UNL1        0.1149
     10 N         141.6020  136.7820  156.2438 N.am    1  UNL1       -0.2741
     11 C         142.2322  135.7326  155.3767 C.2     1  UNL1        0.2526
     12 O         141.4575  135.1347  154.2398 O.2     1  UNL1       -0.2723
     13 C         140.1973  137.2334  155.9740 C.3     1  UNL1        0.1149
     14 C         139.5672  138.2828  156.8411 C.3     1  UNL1        0.1123
     15 C         143.6369  135.2811  155.6464 C.3     1  UNL1        0.1869
     16 C         143.8849  133.9663  156.3245 C.3     1  UNL1        0.0417
     17 O         144.7936  136.1444  155.2381 O.3     1  UNL1       -0.3758
     18 H         144.4612  136.9522  154.8164 H       1  UNL1        0.2110
     19 N         137.8215  143.0780  161.4463 N.pl3   1  UNL1       -0.2825
     20 H         137.0592  143.6022  161.1096 H       1  UNL1        0.1551
     21 C         140.0421  142.7772  164.7217 C.ar    1  UNL1        0.1030
     22 C         139.4152  143.8299  165.5869 C.ar    1  UNL1        0.0414
     23 C         138.2571  144.6320  165.0720 C.ar    1  UNL1        0.1034
     24 N         137.7258  144.3814  163.6918 N.ar    1  UNL1       -0.2120
     25 C         138.3527  143.3286  162.8265 C.ar    1  UNL1        0.2207
     26 N         139.5109  142.5265  163.3415 N.ar    1  UNL1       -0.2120
     27 C         142.8866  139.1103  167.2405 C.3     1  UNL1        0.0718
     28 C         142.5078  140.2896  166.3944 C.ar    1  UNL1        0.1208
     29 N         143.4576  141.1918  165.6637 N.ar    1  UNL1       -0.2293
     30 C         142.6495  142.2335  164.9482 C.ar    1  UNL1        0.1188
     31 C         141.2004  141.9750  165.2367 C.ar    1  UNL1        0.0981
     32 N         141.1128  140.7736  166.1305 N.ar    1  UNL1       -0.3155
     33 C         139.8517  140.1634  166.6663 C.3     1  UNL1        0.0868
     34 C         139.5333  140.2618  168.1288 C.3     1  UNL1        0.0245
     35 C         138.9089  139.4546  165.7395 C.3     1  UNL1        0.0245
@<TRIPOS>BOND
     1    27    28    1
     2    28    29   ar
     3    29    30   ar
     4    30    31   ar
     5    31    21    1
     6    21    22   ar
     7    22    23   ar
     8    23    24   ar
     9    24    25   ar
    10    25    19    1
    11    19     1    1
    12     1     2   ar
    13     2     3   ar
    14     3     4   ar
    15     4     7    1
    16     7     8    1
    17     8     9    1
    18     9    10    1
    19    10    11   am
    20    11    12    2
    21    11    15    1
    22    15    16    1
    23    15    17    1
    24    10    13    1
    25    13    14    1
    26     4     5   ar
    27     5     6   ar
    28    25    26   ar
    29    31    32   ar
    30    32    33    1
    31    33    34    1
    32    33    35    1
    33    32    28   ar
    34    26    21   ar
    35     6     1   ar
    36    14     7    1
    37    19    20    1
    38    17    18    1
@<TRIPOS>MOLECULE
*****
 35 38 0 0 0
SMALL
GASTEIGER

@<TRIPOS>ATOM
      1 C         142.6745  137.8215  161.8859 C.ar    1  UNL1        0.0505
      2 C         141.3350  137.5414  162.5003 C.ar    1  UNL1        0.0159
      3 C         141.0015  138.0918  163.8552 C.ar    1  UNL1        0.0158
      4 C         142.0075  138.9223  164.5958 C.ar    1  UNL1        0.0480
      5 C         143.3469  139.2024  163.9814 C.ar    1  UNL1        0.0158
      6 C         143.6804  138.6520  162.6264 C.ar    1  UNL1        0.0159
      7 N         141.6739  139.4726  165.9508 N.pl3   1  UNL1       -0.3041
      8 C         142.7710  139.9347  166.8634 C.3     1  UNL1        0.1123
      9 C         142.4374  140.4850  168.2183 C.3     1  UNL1        0.1149
     10 N         141.0068  140.5733  168.6606 N.am    1  UNL1       -0.2741
     11 C         140.6733  141.1237  170.0155 C.2     1  UNL1        0.2526
     12 O         139.2427  141.2120  170.4578 O.2     1  UNL1       -0.2723
     13 C         139.9098  140.1113  167.7479 C.3     1  UNL1        0.1149
     14 C         140.2433  139.5609  166.3930 C.3     1  UNL1        0.1123
     15 C         141.7703  141.5857  170.9282 C.3     1  UNL1        0.1869
     16 C         142.4124  142.9239  170.7114 C.3     1  UNL1        0.0417
     17 O         142.2252  140.7097  172.0576 O.3     1  UNL1       -0.3758
     18 H         141.7110  139.8871  172.0561 H       1  UNL1        0.2110
     19 N         143.0079  137.2711  160.5309 N.pl3   1  UNL1       -0.2825
     20 H         143.4847  136.4134  160.4517 H       1  UNL1        0.1551
     21 C         141.4832  140.0838  158.1827 C.ar    1  UNL1        0.1030
     22 C         141.8294  139.5405  156.8281 C.ar    1  UNL1        0.0414
     23 C         142.5684  138.2408  156.7078 C.ar    1  UNL1        0.1034
     24 N         142.9612  137.4843  157.9421 N.ar    1  UNL1       -0.2120
     25 C         142.6151  138.0276  159.2967 C.ar    1  UNL1        0.2207
     26 N         141.8761  139.3273  159.4170 N.ar    1  UNL1       -0.2120
     27 C         140.3707  145.1602  159.1172 C.3     1  UNL1        0.0718
     28 C         140.2328  143.7169  158.7326 C.ar    1  UNL1        0.1208
     29 N         138.9809  143.0504  158.2440 N.ar    1  UNL1       -0.2293
     30 C         139.2970  141.6083  157.9785 C.ar    1  UNL1        0.1188
     31 C         140.7442  141.3836  158.3031 C.ar    1  UNL1        0.0981
     32 N         141.3225  142.6868  158.7692 N.ar    1  UNL1       -0.3155
     33 C         142.7414  142.9191  159.1967 C.3     1  UNL1        0.0868
     34 C         143.0803  143.0079  160.6551 C.3     1  UNL1        0.0245
     35 C         143.8214  143.0625  158.1656 C.3     1  UNL1        0.0245
@<TRIPOS>BOND
     1    27    28    1
     2    28    29   ar
     3    29    30   ar
     4    30    31   ar
     5    31    21    1
     6    21    22   ar
     7    22    23   ar
     8    23    24   ar
     9    24    25   ar
    10    25    19    1
    11    19     1    1
    12     1     2   ar
    13     2     3   ar
    14     3     4   ar
    15     4     7    1
    16     7     8    1
    17     8     9    1
    18     9    10    1
    19    10    11   am
    20    11    12    2
    21    11    15    1
    22    15    16    1
    23    15    17    1
    24    10    13    1
    25    13    14    1
    26     4     5   ar
    27     5     6   ar
    28    25    26   ar
    29    31    32   ar
    30    32    33    1
    31    33    34    1
    32    33    35    1
    33    32    28   ar
    34    26    21   ar
    35     6     1   ar
    36    14     7    1
    37    19    20    1
    38    17    18    1
@<TRIPOS>MOLECULE
*****
 35 38 0 0 0
SMALL
GASTEIGER

@<TRIPOS>ATOM
      1 C         140.9159  144.9983  162.1730 C.ar    1  UNL1        0.0505
      2 C         142.0774  144.0513  162.2400 C.ar    1  UNL1        0.0159
      3 C         142.2767  143.1938  163.4544 C.ar    1  UNL1        0.0158
      4 C         141.3147  143.2831  164.6018 C.ar    1  UNL1        0.0480
      5 C         140.1533  144.2300  164.5348 C.ar    1  UNL1        0.0158
      6 C         139.9539  145.0876  163.3204 C.ar    1  UNL1        0.0159
      7 N         141.5141  142.4255  165.8162 N.pl3   1  UNL1       -0.3041
      8 C         140.8026  142.7579  167.0942 C.3     1  UNL1        0.1123
      9 C         141.0021  141.9003  168.3085 C.3     1  UNL1        0.1149
     10 N         141.9130  140.7103  168.2449 N.am    1  UNL1       -0.2741
     11 C         142.1124  139.8526  169.4594 C.2     1  UNL1        0.2526
     12 O         143.0234  138.6626  169.3958 O.2     1  UNL1       -0.2723
     13 C         142.6245  140.3779  166.9670 C.3     1  UNL1        0.1149
     14 C         142.4251  141.2355  165.7526 C.3     1  UNL1        0.1123
     15 C         141.4009  140.1850  170.7373 C.3     1  UNL1        0.1869
     16 C         139.9279  139.9314  170.8634 C.3     1  UNL1        0.0417
     17 O         142.1624  140.7710  171.8892 O.3     1  UNL1       -0.3758
     18 H         143.0955  140.8696  171.6432 H       1  UNL1        0.2110
     19 N         140.7166  145.8559  160.9586 N.pl3   1  UNL1       -0.2825
     20 H         140.5545  146.8217  161.0592 H       1  UNL1        0.1551
     21 C         139.7617  143.6407  157.8072 C.ar    1  UNL1        0.1030
     22 C         140.8591  144.0139  156.8553 C.ar    1  UNL1        0.0414
     23 C         141.9091  145.0011  157.2711 C.ar    1  UNL1        0.1034
     24 N         141.8616  145.6151  158.6389 N.ar    1  UNL1       -0.2120
     25 C         140.7641  145.2419  159.5908 C.ar    1  UNL1        0.2207
     26 N         139.7141  144.2547  159.1750 N.ar    1  UNL1       -0.2120
     27 C         136.0829  141.1103  154.9884 C.3     1  UNL1        0.0718
     28 C         137.0207  141.4904  156.0957 C.ar    1  UNL1        0.1208
     29 N         137.1709  140.7782  157.4074 N.ar    1  UNL1       -0.2293
     30 C         138.2159  141.4970  158.2081 C.ar    1  UNL1        0.1188
     31 C         138.7116  142.6535  157.3914 C.ar    1  UNL1        0.0981
     32 N         137.9729  142.6494  156.0859 N.ar    1  UNL1       -0.3155
     33 C         138.1545  143.6317  154.9670 C.3     1  UNL1        0.0868
     34 C         137.5385  144.9962  155.0594 C.3     1  UNL1        0.0245
     35 C         138.9522  143.2495  153.7555 C.3     1  UNL1        0.0245
@<TRIPOS>BOND
     1    27    28    1
     2    28    29   ar
     3    29    30   ar
     4    30    31   ar
     5    31    21    1
     6    21    22   ar
     7    22    23   ar
     8    23    24   ar
     9    24    25   ar
    10    25    19    1
    11    19     1    1
    12     1     2   ar
    13     2     3   ar
    14     3     4   ar
    15     4     7    1
    16     7     8    1
    17     8     9    1
    18     9    10    1
    19    10    11   am
    20    11    12    2
    21    11    15    1
    22    15    16    1
    23    15    17    1
    24    10    13    1
    25    13    14    1
    26     4     5   ar
    27     5     6   ar
    28    25    26   ar
    29    31    32   ar
    30    32    33    1
    31    33    34    1
    32    33    35    1
    33    32    28   ar
    34    26    21   ar
    35     6     1   ar
    36    14     7    1
    37    19    20    1
    38    17    18    1
@<TRIPOS>MOLECULE
*****
 35 38 0 0 0
SMALL
GASTEIGER

@<TRIPOS>ATOM
      1 C         140.8214  145.1076  162.1306 C.ar    1  UNL1        0.0505
      2 C         139.7278  145.1123  163.1574 C.ar    1  UNL1        0.0159
      3 C         139.9266  144.4103  164.4679 C.ar    1  UNL1        0.0158
      4 C         141.2189  143.7036  164.7518 C.ar    1  UNL1        0.0480
      5 C         142.3124  143.6988  163.7251 C.ar    1  UNL1        0.0158
      6 C         142.1136  144.4009  162.4145 C.ar    1  UNL1        0.0159
      7 N         141.4176  143.0015  166.0625 N.pl3   1  UNL1       -0.3041
      8 C         140.3063  142.9640  167.0692 C.3     1  UNL1        0.1123
      9 C         140.5051  142.2620  168.3798 C.3     1  UNL1        0.1149
     10 N         141.8151  141.5976  168.6836 N.am    1  UNL1       -0.2741
     11 C         142.0138  140.8955  169.9943 C.2     1  UNL1        0.2526
     12 O         143.3239  140.2311  170.2981 O.2     1  UNL1       -0.2723
     13 C         142.9264  141.6351  167.6769 C.3     1  UNL1        0.1149
     14 C         142.7276  142.3371  166.3663 C.3     1  UNL1        0.1123
     15 C         140.9025  140.8580  171.0010 C.3     1  UNL1        0.1869
     16 C         139.8965  139.7460  170.9664 C.3     1  UNL1        0.0417
     17 O         140.7973  141.9324  172.0425 O.3     1  UNL1       -0.3758
     18 H         141.5200  142.5687  171.9248 H       1  UNL1        0.2110
     19 N         140.6226  145.8095  160.8200 N.pl3   1  UNL1       -0.2825
     20 H         140.6732  146.7917  160.7750 H       1  UNL1        0.1551
     21 C         140.6438  144.6609  157.0213 C.ar    1  UNL1        0.1030
     22 C         139.7951  143.4263  157.0937 C.ar    1  UNL1        0.0414
     23 C         139.2222  142.9860  158.4082 C.ar    1  UNL1        0.1034
     24 N         139.4981  143.7805  159.6503 N.ar    1  UNL1       -0.2120
     25 C         140.3468  145.0151  159.5779 C.ar    1  UNL1        0.2207
     26 N         140.9196  145.4553  158.2634 N.ar    1  UNL1       -0.2120
     27 C         141.2346  147.0436  152.3464 C.3     1  UNL1        0.0718
     28 C         141.4883  146.1964  153.5580 C.ar    1  UNL1        0.1208
     29 N         142.7084  145.3609  153.8099 N.ar    1  UNL1       -0.2293
     30 C         142.5405  144.6841  155.1379 C.ar    1  UNL1        0.1188
     31 C         141.2167  145.1012  155.7067 C.ar    1  UNL1        0.0981
     32 N         140.5664  146.0358  154.7303 N.ar    1  UNL1       -0.3155
     33 C         139.2290  146.6944  154.8968 C.3     1  UNL1        0.0868
     34 C         139.1443  148.1763  155.1126 C.3     1  UNL1        0.0245
     35 C         137.9762  145.8708  154.8476 C.3     1  UNL1        0.0245
@<TRIPOS>BOND
     1    27    28    1
     2    28    29   ar
     3    29    30   ar
     4    30    31   ar
     5    31    21    1
     6    21    22   ar
     7    22    23   ar
     8    23    24   ar
     9    24    25   ar
    10    25    19    1
    11    19     1    1
    12     1     2   ar
    13     2     3   ar
    14     3     4   ar
    15     4     7    1
    16     7     8    1
    17     8     9    1
    18     9    10    1
    19    10    11   am
    20    11    12    2
    21    11    15    1
    22    15    16    1
    23    15    17    1
    24    10    13    1
    25    13    14    1
    26     4     5   ar
    27     5     6   ar
    28    25    26   ar
    29    31    32   ar
    30    32    33    1
    31    33    34    1
    32    33    35    1
    33    32    28   ar
    34    26    21   ar
    35     6     1   ar
    36    14     7    1
    37    19    20    1
    38    17    18    1
@<TRIPOS>MOLECULE
*****
 35 38 0 0 0
SMALL
GASTEIGER

@<TRIPOS>ATOM
      1 C         137.8049  140.0683  162.0888 C.ar    1  UNL1        0.0505
      2 C         137.6249  141.4301  162.6914 C.ar    1  UNL1        0.0159
      3 C         138.2347  141.7468  164.0247 C.ar    1  UNL1        0.0158
      4 C         139.0246  140.7017  164.7554 C.ar    1  UNL1        0.0480
      5 C         139.2046  139.3400  164.1528 C.ar    1  UNL1        0.0158
      6 C         138.5947  139.0232  162.8195 C.ar    1  UNL1        0.0159
      7 N         139.6345  141.0185  166.0888 N.pl3   1  UNL1       -0.3041
      8 C         139.8937  139.9186  167.0753 C.3     1  UNL1        0.1123
      9 C         140.5035  140.2354  168.4086 C.3     1  UNL1        0.1149
     10 N         140.8541  141.6520  168.7554 N.am    1  UNL1       -0.2741
     11 C         141.4640  141.9687  170.0888 C.2     1  UNL1        0.2526
     12 O         141.8146  143.3853  170.4356 O.2     1  UNL1       -0.2723
     13 C         140.5949  142.7518  167.7689 C.3     1  UNL1        0.1149
     14 C         139.9851  142.4351  166.4357 C.3     1  UNL1        0.1123
     15 C         141.7232  140.8689  171.0752 C.3     1  UNL1        0.1869
     16 C         142.9763  140.0508  170.9741 C.3     1  UNL1        0.0417
     17 O         140.7293  140.5872  172.1628 O.3     1  UNL1       -0.3758
     18 H         139.9827  141.2017  172.0856 H       1  UNL1        0.2110
     19 N         137.1950  139.7516  160.7555 N.pl3   1  UNL1       -0.2825
     20 H         136.3083  139.3265  160.7082 H       1  UNL1        0.1551
     21 C         140.1743  140.5066  158.2447 C.ar    1  UNL1        0.1030
     22 C         139.4184  140.7449  156.9713 C.ar    1  UNL1        0.0414
     23 C         137.9213  140.6522  156.9592 C.ar    1  UNL1        0.1034
     24 N         137.1802  140.3210  158.2206 N.ar    1  UNL1       -0.2120
     25 C         137.9361  140.0827  159.4941 C.ar    1  UNL1        0.2207
     26 N         139.4332  140.1755  159.5061 N.ar    1  UNL1       -0.2120
     27 C         145.0857  142.4455  158.2560 C.3     1  UNL1        0.0718
     28 C         143.9289  141.4906  158.2620 C.ar    1  UNL1        0.1208
     29 N         144.0215  139.9936  158.2889 N.ar    1  UNL1       -0.2293
     30 C         142.6263  139.4429  158.2857 C.ar    1  UNL1        0.1188
     31 C         141.6714  140.5994  158.2568 C.ar    1  UNL1        0.0981
     32 N         142.4765  141.8649  158.2422 N.ar    1  UNL1       -0.3155
     33 C         141.9260  143.2599  158.2129 C.3     1  UNL1        0.0868
     34 C         141.4501  143.9052  159.4805 C.3     1  UNL1        0.0245
     35 C         141.8513  144.0096  156.9157 C.3     1  UNL1        0.0245
@<TRIPOS>BOND
     1    27    28    1
     2    28    29   ar
     3    29    30   ar
     4    30    31   ar
     5    31    21    1
     6    21    22   ar
     7    22    23   ar
     8    23    24   ar
     9    24    25   ar
    10    25    19    1
    11    19     1    1
    12     1     2   ar
    13     2     3   ar
    14     3     4   ar
    15     4     7    1
    16     7     8    1
    17     8     9    1
    18     9    10    1
    19    10    11   am
    20    11    12    2
    21    11    15    1
    22    15    16    1
    23    15    17    1
    24    10    13    1
    25    13    14    1
    26     4     5   ar
    27     5     6   ar
    28    25    26   ar
    29    31    32   ar
    30    32    33    1
    31    33    34    1
    32    33    35    1
    33    32    28   ar
    34    26    21   ar
    35     6     1   ar
    36    14     7    1
    37    19    20    1
    38    17    18    1
@<TRIPOS>MOLECULE
*****
 35 38 0 0 0
SMALL
GASTEIGER

@<TRIPOS>ATOM
      1 C         142.8353  138.0194  162.2302 C.ar    1  UNL1        0.0505
      2 C         141.4403  137.7009  162.6804 C.ar    1  UNL1        0.0159
      3 C         140.9135  138.2829  163.9586 C.ar    1  UNL1        0.0158
      4 C         141.7816  139.1834  164.7866 C.ar    1  UNL1        0.0480
      5 C         143.1765  139.5018  164.3364 C.ar    1  UNL1        0.0158
      6 C         143.7034  138.9198  163.0582 C.ar    1  UNL1        0.0159
      7 N         141.2546  139.7654  166.0647 N.pl3   1  UNL1       -0.3041
      8 C         142.0261  140.8383  166.7744 C.3     1  UNL1        0.1123
      9 C         141.4991  141.4203  168.0525 C.3     1  UNL1        0.1149
     10 N         140.2008  140.9293  168.6210 N.am    1  UNL1       -0.2741
     11 C         139.6739  141.5113  169.8992 C.2     1  UNL1        0.2526
     12 O         138.3755  141.0202  170.4677 O.2     1  UNL1       -0.2723
     13 C         139.4294  139.8563  167.9114 C.3     1  UNL1        0.1149
     14 C         139.9563  139.2743  166.6332 C.3     1  UNL1        0.1123
     15 C         140.4453  142.5842  170.6088 C.3     1  UNL1        0.1869
     16 C         140.3779  144.0020  170.1236 C.3     1  UNL1        0.0417
     17 O         141.2840  142.2395  171.8036 O.3     1  UNL1       -0.3758
     18 H         141.2170  141.2884  171.9822 H       1  UNL1        0.2110
     19 N         143.3622  137.4374  160.9521 N.pl3   1  UNL1       -0.2825
     20 H         143.8591  136.5876  160.9662 H       1  UNL1        0.1551
     21 C         141.8631  138.3589  157.3949 C.ar    1  UNL1        0.1030
     22 C         142.6713  139.5754  157.0532 C.ar    1  UNL1        0.0414
     23 C         143.7098  140.0792  158.0111 C.ar    1  UNL1        0.1034
     24 N         143.9401  139.3666  159.3107 N.ar    1  UNL1       -0.2120
     25 C         143.1319  138.1500  159.6525 C.ar    1  UNL1        0.2207
     26 N         142.0934  137.6462  158.6946 N.ar    1  UNL1       -0.2120
     27 C         137.5405  138.0543  154.3778 C.3     1  UNL1        0.0718
     28 C         138.8377  137.7150  155.0502 C.ar    1  UNL1        0.1208
     29 N         139.6152  136.4441  154.8757 N.ar    1  UNL1       -0.2293
     30 C         140.8432  136.5307  155.7328 C.ar    1  UNL1        0.1188
     31 C         140.8246  137.8550  156.4370 C.ar    1  UNL1        0.0981
     32 N         139.5851  138.5869  156.0151 N.ar    1  UNL1       -0.3155
     33 C         139.1665  139.9512  156.4770 C.3     1  UNL1        0.0868
     34 C         138.6318  140.1418  157.8654 C.3     1  UNL1        0.0245
     35 C         139.2826  141.1251  155.5504 C.3     1  UNL1        0.0245
@<TRIPOS>BOND
     1    27    28    1
     2    28    29   ar
     3    29    30   ar
     4    30    31   ar
     5    31    21    1
     6    21    22   ar
     7    22    23   ar
     8    23    24   ar
     9    24    25   ar
    10    25    19    1
    11    19     1    1
    12     1     2   ar
    13     2     3   ar
    14     3     4   ar
    15     4     7    1
    16     7     8    1
    17     8     9    1
    18     9    10    1
    19    10    11   am
    20    11    12    2
    21    11    15    1
    22    15    16    1
    23    15    17    1
    24    10    13    1
    25    13    14    1
    26     4     5   ar
    27     5     6   ar
    28    25    26   ar
    29    31    32   ar
    30    32    33    1
    31    33    34    1
    32    33    35    1
    33    32    28   ar
    34    26    21   ar
    35     6     1   ar
    36    14     7    1
    37    19    20    1
    38    17    18    1
@<TRIPOS>MOLECULE
*****
 35 38 0 0 0
SMALL
GASTEIGER

@<TRIPOS>ATOM
      1 C         137.8882  139.9439  161.1736 C.ar    1  UNL1        0.0505
      2 C         137.9374  141.2801  161.8536 C.ar    1  UNL1        0.0159
      3 C         138.2546  141.3657  163.3171 C.ar    1  UNL1        0.0158
      4 C         138.5227  140.1151  164.1008 C.ar    1  UNL1        0.0480
      5 C         138.4736  138.7790  163.4209 C.ar    1  UNL1        0.0158
      6 C         138.1564  138.6934  161.9573 C.ar    1  UNL1        0.0159
      7 N         138.8400  140.2007  165.5644 N.pl3   1  UNL1       -0.3041
      8 C         139.8120  141.2290  166.0622 C.3     1  UNL1        0.1123
      9 C         140.1292  141.3145  167.5258 C.3     1  UNL1        0.1149
     10 N         139.4744  140.3719  168.4915 N.am    1  UNL1       -0.2741
     11 C         139.7916  140.4575  169.9551 C.2     1  UNL1        0.2526
     12 O         139.1368  139.5148  170.9208 O.2     1  UNL1       -0.2723
     13 C         138.5024  139.3436  167.9937 C.3     1  UNL1        0.1149
     14 C         138.1852  139.2581  166.5301 C.3     1  UNL1        0.1123
     15 C         140.7637  141.4857  170.4529 C.3     1  UNL1        0.1869
     16 C         142.2071  141.1239  170.6414 C.3     1  UNL1        0.0417
     17 O         140.2923  142.8757  170.7622 O.3     1  UNL1       -0.3758
     18 H         139.3404  142.9407  170.5873 H       1  UNL1        0.2110
     19 N         137.5710  139.8584  159.7101 N.pl3   1  UNL1       -0.2825
     20 H         136.7616  139.3858  159.4087 H       1  UNL1        0.1551
     21 C         138.9899  142.3877  157.0010 C.ar    1  UNL1        0.1030
     22 C         140.3187  141.7616  156.6972 C.ar    1  UNL1        0.0414
     23 C         140.7316  140.5011  157.3976 C.ar    1  UNL1        0.1034
     24 N         139.8157  139.8667  158.4019 N.ar    1  UNL1       -0.2120
     25 C         138.4869  140.4928  158.7058 C.ar    1  UNL1        0.2207
     26 N         138.0740  141.7533  158.0053 N.ar    1  UNL1       -0.2120
     27 C         138.8517  147.4018  155.3516 C.3     1  UNL1        0.0718
     28 C         138.5135  145.9529  155.5424 C.ar    1  UNL1        0.1208
     29 N         137.3697  145.2229  154.9029 N.ar    1  UNL1       -0.2293
     30 C         137.4090  143.7985  155.3715 C.ar    1  UNL1        0.1188
     31 C         138.5770  143.6482  156.3005 C.ar    1  UNL1        0.0981
     32 N         139.2596  144.9797  156.4062 N.ar    1  UNL1       -0.3155
     33 C         140.4750  145.2845  157.2307 C.3     1  UNL1        0.0868
     34 C         140.3465  145.4800  158.7123 C.3     1  UNL1        0.0245
     35 C         141.8190  145.3940  156.5736 C.3     1  UNL1        0.0245
@<TRIPOS>BOND
     1    27    28    1
     2    28    29   ar
     3    29    30   ar
     4    30    31   ar
     5    31    21    1
     6    21    22   ar
     7    22    23   ar
     8    23    24   ar
     9    24    25   ar
    10    25    19    1
    11    19     1    1
    12     1     2   ar
    13     2     3   ar
    14     3     4   ar
    15     4     7    1
    16     7     8    1
    17     8     9    1
    18     9    10    1
    19    10    11   am
    20    11    12    2
    21    11    15    1
    22    15    16    1
    23    15    17    1
    24    10    13    1
    25    13    14    1
    26     4     5   ar
    27     5     6   ar
    28    25    26   ar
    29    31    32   ar
    30    32    33    1
    31    33    34    1
    32    33    35    1
    33    32    28   ar
    34    26    21   ar
    35     6     1   ar
    36    14     7    1
    37    19    20    1
    38    17    18    1
@<TRIPOS>MOLECULE
*****
 35 38 0 0 0
SMALL
GASTEIGER

@<TRIPOS>ATOM
      1 C         137.9077  140.3849  161.9752 C.ar    1  UNL1        0.0505
      2 C         137.3206  141.4458  162.8584 C.ar    1  UNL1        0.0159
      3 C         137.9159  141.7109  164.2094 C.ar    1  UNL1        0.0158
      4 C         139.0982  140.9151  164.6773 C.ar    1  UNL1        0.0480
      5 C         139.6852  139.8543  163.7942 C.ar    1  UNL1        0.0158
      6 C         139.0900  139.5892  162.4431 C.ar    1  UNL1        0.0159
      7 N         139.6934  141.1803  166.0285 N.pl3   1  UNL1       -0.3041
      8 C         139.9348  140.0442  166.9777 C.3     1  UNL1        0.1123
      9 C         140.5300  140.3094  168.3288 C.3     1  UNL1        0.1149
     10 N         140.8838  141.7106  168.7306 N.am    1  UNL1       -0.2741
     11 C         141.4790  141.9757  170.0817 C.2     1  UNL1        0.2526
     12 O         141.8329  143.3769  170.4835 O.2     1  UNL1       -0.2723
     13 C         140.6424  142.8466  167.7813 C.3     1  UNL1        0.1149
     14 C         140.0472  142.5815  166.4303 C.3     1  UNL1        0.1123
     15 C         141.7204  140.8397  171.0309 C.3     1  UNL1        0.1869
     16 C         142.9587  140.0033  170.9002 C.3     1  UNL1        0.0417
     17 O         140.7235  140.5400  172.1109 O.3     1  UNL1       -0.3758
     18 H         139.9878  141.1697  172.0556 H       1  UNL1        0.2110
     19 N         137.3124  140.1199  160.6241 N.pl3   1  UNL1       -0.2825
     20 H         136.4187  139.7135  160.5511 H       1  UNL1        0.1551
     21 C         139.1491  142.2637  157.8347 C.ar    1  UNL1        0.1030
     22 C         139.6119  141.1818  156.9046 C.ar    1  UNL1        0.0414
     23 C         139.3083  139.7459  157.2143 C.ar    1  UNL1        0.1034
     24 N         138.5418  139.3919  158.4541 N.ar    1  UNL1       -0.2120
     25 C         138.0789  140.4739  159.3843 C.ar    1  UNL1        0.2207
     26 N         138.3826  141.9097  159.0746 N.ar    1  UNL1       -0.2120
     27 C         139.3803  146.9302  155.3747 C.3     1  UNL1        0.0718
     28 C         139.5590  145.8446  156.3943 C.ar    1  UNL1        0.1208
     29 N         140.2809  145.9742  157.7028 N.ar    1  UNL1       -0.2293
     30 C         140.2151  144.6485  158.4016 C.ar    1  UNL1        0.1188
     31 C         139.4527  143.6997  157.5250 C.ar    1  UNL1        0.0981
     32 N         139.0471  144.4389  156.2845 N.ar    1  UNL1       -0.3155
     33 C         138.2668  143.8721  155.1357 C.3     1  UNL1        0.0868
     34 C         136.7805  143.7048  155.2485 C.3     1  UNL1        0.0245
     35 C         138.9729  143.4724  153.8740 C.3     1  UNL1        0.0245
@<TRIPOS>BOND
     1    27    28    1
     2    28    29   ar
     3    29    30   ar
     4    30    31   ar
     5    31    21    1
     6    21    22   ar
     7    22    23   ar
     8    23    24   ar
     9    24    25   ar
    10    25    19    1
    11    19     1    1
    12     1     2   ar
    13     2     3   ar
    14     3     4   ar
    15     4     7    1
    16     7     8    1
    17     8     9    1
    18     9    10    1
    19    10    11   am
    20    11    12    2
    21    11    15    1
    22    15    16    1
    23    15    17    1
    24    10    13    1
    25    13    14    1
    26     4     5   ar
    27     5     6   ar
    28    25    26   ar
    29    31    32   ar
    30    32    33    1
    31    33    34    1
    32    33    35    1
    33    32    28   ar
    34    26    21   ar
    35     6     1   ar
    36    14     7    1
    37    19    20    1
    38    17    18    1
