@<TRIPOS>MOLECULE
*****
 44 49 0 0 0
SMALL
GASTEIGER

@<TRIPOS>ATOM
      1 C         144.3509  139.7690  163.2997 C.3     1  UNL1        0.0700
      2 C         143.9978  139.3596  164.6989 C.3     1  UNL1        0.0193
      3 C         142.7852  138.5130  164.9493 C.3     1  UNL1        0.0286
      4 C         141.9256  138.0756  163.8004 C.3     1  UNL1        0.0932
      5 C         142.2787  138.4850  162.4012 C.3     1  UNL1        0.0286
      6 C         143.4914  139.3317  162.1509 C.3     1  UNL1        0.0193
      7 O         142.5802  138.5389  163.6138 O.3     1  UNL1       -0.3572
      8 C         143.6767  139.3045  163.3874 C.3     1  UNL1        0.1562
      9 N         145.5635  140.6157  163.0494 N.3     1  UNL1       -0.2926
     10 H         146.3472  140.1504  163.5074 H       1  UNL1        0.1236
     11 C         145.5856  142.0461  163.5004 C.3     1  UNL1        0.1152
     12 O         140.4673  145.4752  158.7260 O.2     1  UNL1       -0.2707
     13 C         140.9684  145.2017  160.1132 C.2     1  UNL1        0.2718
     14 C         140.2643  145.7977  161.2960 C.3     1  UNL1        0.2898
     15 O         140.7654  145.5242  162.6831 O.3     1  UNL1       -0.4628
     16 C         141.9704  144.6547  162.8875 C.ar    1  UNL1        0.1708
     17 C         142.4714  144.3812  164.2746 C.ar    1  UNL1        0.0411
     18 C         143.6765  143.5117  164.4789 C.ar    1  UNL1        0.0193
     19 C         144.3806  142.9156  163.2961 C.ar    1  UNL1        0.0765
     20 N         143.8795  143.1892  161.9089 N.ar    1  UNL1       -0.2304
     21 C         142.6744  144.0587  161.7046 C.ar    1  UNL1        0.1682
     22 N         142.1734  144.3322  160.3175 N.am    1  UNL1       -0.2639
     23 H         142.6355  143.9410  159.5412 H       1  UNL1        0.1565
     24 C         140.7130  137.2289  164.0507 C.3     1  UNL1        0.0320
     25 C         139.4267  137.8696  164.4806 C.3     1  UNL1        0.0327
     26 C         138.8974  139.0608  163.7384 C.ar    1  UNL1        0.0261
     27 C         138.2109  138.8771  162.4173 C.ar    1  UNL1        0.1566
     28 F         138.0538  137.5022  161.8386 F       1  UNL1       -0.2028
     29 C         137.6816  140.0682  161.6751 C.ar    1  UNL1        0.1281
     30 N         137.8387  141.4431  162.2539 N.ar    1  UNL1       -0.2400
     31 C         138.5251  141.6269  163.5748 C.ar    1  UNL1        0.0990
     32 C         138.6823  143.0018  164.1536 C.ar    1  UNL1        0.0254
     33 C         139.3687  143.1855  165.4747 C.ar    1  UNL1        0.0593
     34 C         139.8980  141.9943  166.2169 C.ar    1  UNL1        0.2249
     35 N         139.7409  140.6194  165.6381 N.ar    1  UNL1       -0.2104
     36 C         139.0545  140.4357  164.3171 C.ar    1  UNL1        0.1002
     37 O         140.5844  142.1781  167.5379 O.3     1  UNL1       -0.4602
     38 C         142.0815  142.2457  167.6022 C.3     1  UNL1        0.2071
     39 C         142.8769  141.0056  167.8844 C.3     1  UNL1        0.0475
     40 C         142.1874  139.7690  168.3800 C.3     1  UNL1        0.0064
     41 C         142.0742  139.5131  169.8537 C.3     1  UNL1        0.0319
     42 C         141.6990  140.6298  170.7822 C.3     1  UNL1        0.1372
     43 O         142.2628  140.6713  172.1716 O.3     1  UNL1       -0.3820
     44 H         141.9255  139.9172  172.6801 H       1  UNL1        0.2104
@<TRIPOS>BOND
     1    12    13    2
     2    13    14    1
     3    14    15    1
     4    15    16    1
     5    16    17   ar
     6    17    18   ar
     7    18    19   ar
     8    19    11    1
     9    11     9    1
    10     9     1    1
    11     1     2    1
    12     2     3    1
    13     3     4    1
    14     4    24    1
    15    24    25    1
    16    25    26    1
    17    26    27   ar
    18    27    28    1
    19    27    29   ar
    20    29    30   ar
    21    30    31   ar
    22    31    32   ar
    23    32    33   ar
    24    33    34   ar
    25    34    37    1
    26    37    38    1
    27    38    39    1
    28    39    40    1
    29    40    41    1
    30    41    42    1
    31    42    43    1
    32    34    35   ar
    33    35    36   ar
    34     4     5    1
    35     5     6    1
    36     4     7    1
    37     7     8    1
    38    19    20   ar
    39    20    21   ar
    40    21    22    1
    41    22    13   am
    42    21    16   ar
    43     6     1    1
    44     8     1    1
    45    36    26   ar
    46    36    31   ar
    47     9    10    1
    48    43    44    1
    49    22    23    1
@<TRIPOS>MOLECULE
*****
 44 49 0 0 0
SMALL
GASTEIGER

@<TRIPOS>ATOM
      1 C         138.0126  140.0380  162.4021 C.3     1  UNL1        0.0700
      2 C         137.7310  140.3881  163.8333 C.3     1  UNL1        0.0193
      3 C         137.6266  141.8261  164.2470 C.3     1  UNL1        0.0286
      4 C         137.8039  142.9141  163.2297 C.3     1  UNL1        0.0932
      5 C         138.0855  142.5640  161.7985 C.3     1  UNL1        0.0286
      6 C         138.1898  141.1259  161.3848 C.3     1  UNL1        0.0193
      7 O         137.8700  142.1405  162.9554 O.3     1  UNL1       -0.3572
      8 C         137.9643  140.8402  162.5812 C.3     1  UNL1        0.1562
      9 N         138.1169  138.6000  161.9883 N.3     1  UNL1       -0.2926
     10 H         137.1644  138.2389  161.9356 H       1  UNL1        0.1236
     11 C         138.9007  137.6335  162.8260 C.3     1  UNL1        0.1152
     12 O         145.5174  141.6653  161.9817 O.2     1  UNL1       -0.2707
     13 C         144.6782  140.6937  162.7574 C.2     1  UNL1        0.2718
     14 C         145.2054  140.0944  164.0274 C.3     1  UNL1        0.2898
     15 O         144.3662  139.1228  164.8032 O.3     1  UNL1       -0.4628
     16 C         142.9999  138.7505  164.3089 C.ar    1  UNL1        0.1708
     17 C         142.1607  137.7789  165.0846 C.ar    1  UNL1        0.0411
     18 C         140.7943  137.4065  164.5904 C.ar    1  UNL1        0.0193
     19 C         140.2670  138.0058  163.3203 C.ar    1  UNL1        0.0765
     20 N         141.1062  138.9774  162.5446 N.ar    1  UNL1       -0.2304
     21 C         142.4727  139.3497  163.0389 C.ar    1  UNL1        0.1682
     22 N         143.3119  140.3213  162.2632 N.am    1  UNL1       -0.2639
     23 H         142.9658  140.7147  161.4296 H       1  UNL1        0.1565
     24 C         137.6996  144.3521  163.6434 C.3     1  UNL1        0.0320
     25 C         138.8168  144.9947  164.4108 C.3     1  UNL1        0.0327
     26 C         140.2394  144.6170  164.1219 C.ar    1  UNL1        0.0261
     27 C         140.9488  145.2128  162.9420 C.ar    1  UNL1        0.1566
     28 F         140.2354  146.1863  162.0512 F       1  UNL1       -0.2028
     29 C         142.3714  144.8352  162.6531 C.ar    1  UNL1        0.1281
     30 N         143.0847  143.8617  163.5440 N.ar    1  UNL1       -0.2400
     31 C         142.3754  143.2659  164.7237 C.ar    1  UNL1        0.0990
     32 C         143.0887  142.2925  165.6146 C.ar    1  UNL1        0.0254
     33 C         142.3794  141.6967  166.7944 C.ar    1  UNL1        0.0593
     34 C         140.9568  142.0743  167.0833 C.ar    1  UNL1        0.2249
     35 N         140.2434  143.0478  166.1925 N.ar    1  UNL1       -0.2104
     36 C         140.9527  143.6436  165.0127 C.ar    1  UNL1        0.1002
     37 O         140.2475  141.4786  168.2631 O.3     1  UNL1       -0.4602
     38 C         140.2066  142.2198  169.5665 C.3     1  UNL1        0.2071
     39 C         141.1137  143.3933  169.7906 C.3     1  UNL1        0.0475
     40 C         142.4715  143.1872  170.3940 C.3     1  UNL1        0.0064
     41 C         143.2981  142.0014  169.9933 C.3     1  UNL1        0.0319
     42 C         142.9905  140.6469  170.5595 C.3     1  UNL1        0.1372
     43 O         142.3543  140.5264  171.9126 O.3     1  UNL1       -0.3820
     44 H         142.9699  140.8492  172.5892 H       1  UNL1        0.2104
@<TRIPOS>BOND
     1    12    13    2
     2    13    14    1
     3    14    15    1
     4    15    16    1
     5    16    17   ar
     6    17    18   ar
     7    18    19   ar
     8    19    11    1
     9    11     9    1
    10     9     1    1
    11     1     2    1
    12     2     3    1
    13     3     4    1
    14     4    24    1
    15    24    25    1
    16    25    26    1
    17    26    27   ar
    18    27    28    1
    19    27    29   ar
    20    29    30   ar
    21    30    31   ar
    22    31    32   ar
    23    32    33   ar
    24    33    34   ar
    25    34    37    1
    26    37    38    1
    27    38    39    1
    28    39    40    1
    29    40    41    1
    30    41    42    1
    31    42    43    1
    32    34    35   ar
    33    35    36   ar
    34     4     5    1
    35     5     6    1
    36     4     7    1
    37     7     8    1
    38    19    20   ar
    39    20    21   ar
    40    21    22    1
    41    22    13   am
    42    21    16   ar
    43     6     1    1
    44     8     1    1
    45    36    26   ar
    46    36    31   ar
    47     9    10    1
    48    43    44    1
    49    22    23    1
@<TRIPOS>MOLECULE
*****
 44 49 0 0 0
SMALL
GASTEIGER

@<TRIPOS>ATOM
      1 C         144.3393  139.6109  163.9626 C.3     1  UNL1        0.0700
      2 C         143.6360  138.9671  162.8045 C.3     1  UNL1        0.0193
      3 C         142.3711  138.1935  163.0313 C.3     1  UNL1        0.0286
      4 C         141.8094  138.0636  164.4161 C.3     1  UNL1        0.0932
      5 C         142.5127  138.7073  165.5741 C.3     1  UNL1        0.0286
      6 C         143.7776  139.4810  165.3473 C.3     1  UNL1        0.0193
      7 O         142.5052  138.4974  164.3412 O.3     1  UNL1       -0.3572
      8 C         143.6490  139.1970  164.1362 C.3     1  UNL1        0.1562
      9 N         145.6042  140.3845  163.7358 N.3     1  UNL1       -0.2926
     10 H         146.1986  140.2217  164.5486 H       1  UNL1        0.1236
     11 C         145.5486  141.8694  163.5304 C.3     1  UNL1        0.1152
     12 O         139.7011  146.7163  161.7800 O.2     1  UNL1       -0.2707
     13 C         140.7033  145.6836  161.3568 C.2     1  UNL1        0.2718
     14 C         140.7585  145.2338  159.9269 C.3     1  UNL1        0.2898
     15 O         141.7607  144.2011  159.5036 O.3     1  UNL1       -0.4628
     16 C         142.7077  143.6182  160.5103 C.ar    1  UNL1        0.1708
     17 C         143.7099  142.5855  160.0871 C.ar    1  UNL1        0.0411
     18 C         144.6569  142.0025  161.0937 C.ar    1  UNL1        0.0193
     19 C         144.6017  142.4523  162.5237 C.ar    1  UNL1        0.0765
     20 N         143.5995  143.4850  162.9469 N.ar    1  UNL1       -0.2304
     21 C         142.6525  144.0679  161.9402 C.ar    1  UNL1        0.1682
     22 N         141.6503  145.1006  162.3634 N.am    1  UNL1       -0.2639
     23 H         141.6140  145.3958  163.3019 H       1  UNL1        0.1565
     24 C         140.5445  137.2899  164.6428 C.3     1  UNL1        0.0320
     25 C         139.2572  138.0158  164.8998 C.3     1  UNL1        0.0327
     26 C         138.8766  139.1916  164.0498 C.ar    1  UNL1        0.0261
     27 C         138.1953  138.9746  162.7312 C.ar    1  UNL1        0.1566
     28 F         137.8946  137.5817  162.2626 F       1  UNL1       -0.2028
     29 C         137.8147  140.1504  161.8812 C.ar    1  UNL1        0.1281
     30 N         138.1153  141.5432  162.3497 N.ar    1  UNL1       -0.2400
     31 C         138.7966  141.7603  163.6683 C.ar    1  UNL1        0.0990
     32 C         139.0973  143.1531  164.1369 C.ar    1  UNL1        0.0254
     33 C         139.7786  143.3701  165.4555 C.ar    1  UNL1        0.0593
     34 C         140.1592  142.1943  166.3055 C.ar    1  UNL1        0.2249
     35 N         139.8586  140.8015  165.8370 N.ar    1  UNL1       -0.2104
     36 C         139.1773  140.5844  164.5184 C.ar    1  UNL1        0.1002
     37 O         140.8405  142.4114  167.6241 O.3     1  UNL1       -0.4602
     38 C         142.2924  142.0699  167.7833 C.3     1  UNL1        0.2071
     39 C         142.8878  141.9462  169.1546 C.3     1  UNL1        0.0475
     40 C         142.8631  140.6263  169.8667 C.3     1  UNL1        0.0064
     41 C         141.7031  139.6942  169.6786 C.3     1  UNL1        0.0319
     42 C         140.3559  140.0521  170.2326 C.3     1  UNL1        0.1372
     43 O         139.8136  139.3146  171.4209 O.3     1  UNL1       -0.3820
     44 H         139.6494  138.3894  171.1799 H       1  UNL1        0.2104
@<TRIPOS>BOND
     1    12    13    2
     2    13    14    1
     3    14    15    1
     4    15    16    1
     5    16    17   ar
     6    17    18   ar
     7    18    19   ar
     8    19    11    1
     9    11     9    1
    10     9     1    1
    11     1     2    1
    12     2     3    1
    13     3     4    1
    14     4    24    1
    15    24    25    1
    16    25    26    1
    17    26    27   ar
    18    27    28    1
    19    27    29   ar
    20    29    30   ar
    21    30    31   ar
    22    31    32   ar
    23    32    33   ar
    24    33    34   ar
    25    34    37    1
    26    37    38    1
    27    38    39    1
    28    39    40    1
    29    40    41    1
    30    41    42    1
    31    42    43    1
    32    34    35   ar
    33    35    36   ar
    34     4     5    1
    35     5     6    1
    36     4     7    1
    37     7     8    1
    38    19    20   ar
    39    20    21   ar
    40    21    22    1
    41    22    13   am
    42    21    16   ar
    43     6     1    1
    44     8     1    1
    45    36    26   ar
    46    36    31   ar
    47     9    10    1
    48    43    44    1
    49    22    23    1
@<TRIPOS>MOLECULE
*****
 44 49 0 0 0
SMALL
GASTEIGER

@<TRIPOS>ATOM
      1 C         137.9230  139.9936  162.5161 C.3     1  UNL1        0.0700
      2 C         138.0506  140.1474  164.0027 C.3     1  UNL1        0.0193
      3 C         138.0309  141.5145  164.6197 C.3     1  UNL1        0.0286
      4 C         137.8835  142.7278  163.7501 C.3     1  UNL1        0.0932
      5 C         137.7559  142.5740  162.2634 C.3     1  UNL1        0.0286
      6 C         137.7756  141.2068  161.6464 C.3     1  UNL1        0.0193
      7 O         137.8890  141.9994  163.3663 O.3     1  UNL1       -0.3572
      8 C         137.9068  140.7632  162.8083 C.3     1  UNL1        0.1562
      9 N         137.9427  138.6266  161.8991 N.3     1  UNL1       -0.2926
     10 H         137.7290  137.9640  162.6445 H       1  UNL1        0.1236
     11 C         139.1837  138.1283  161.2194 C.3     1  UNL1        0.1152
     12 O         144.0223  137.9754  167.3279 O.2     1  UNL1       -0.2707
     13 C         143.7562  138.3072  165.8895 C.2     1  UNL1        0.2718
     14 C         144.8368  138.9199  165.0488 C.3     1  UNL1        0.2898
     15 O         144.5707  139.2518  163.6104 O.3     1  UNL1       -0.4628
     16 C         143.2240  138.9709  163.0127 C.ar    1  UNL1        0.1708
     17 C         142.9579  139.3027  161.5742 C.ar    1  UNL1        0.0411
     18 C         141.6111  139.0219  160.9765 C.ar    1  UNL1        0.0193
     19 C         140.5304  138.4091  161.8172 C.ar    1  UNL1        0.0765
     20 N         140.7965  138.0773  163.2556 N.ar    1  UNL1       -0.2304
     21 C         142.1434  138.3582  163.8533 C.ar    1  UNL1        0.1682
     22 N         142.4095  138.0263  165.2918 N.am    1  UNL1       -0.2639
     23 H         141.7002  137.6242  165.8435 H       1  UNL1        0.1565
     24 C         137.8638  144.0949  164.3671 C.3     1  UNL1        0.0320
     25 C         139.1528  144.7898  164.6918 C.3     1  UNL1        0.0327
     26 C         140.3186  144.6847  163.7539 C.ar    1  UNL1        0.0261
     27 C         140.2656  145.3558  162.4134 C.ar    1  UNL1        0.1566
     28 F         139.0468  146.1320  162.0109 F       1  UNL1       -0.2028
     29 C         141.4314  145.2506  161.4754 C.ar    1  UNL1        0.1281
     30 N         142.6502  144.4744  161.8778 N.ar    1  UNL1       -0.2400
     31 C         142.7032  143.8033  163.2183 C.ar    1  UNL1        0.0990
     32 C         143.9220  143.0270  163.6207 C.ar    1  UNL1        0.0254
     33 C         143.9750  142.3559  164.9612 C.ar    1  UNL1        0.0593
     34 C         142.8092  142.4610  165.8992 C.ar    1  UNL1        0.2249
     35 N         141.5904  143.2373  165.4967 N.ar    1  UNL1       -0.2104
     36 C         141.5374  143.9084  164.1563 C.ar    1  UNL1        0.1002
     37 O         142.8622  141.7900  167.2396 O.3     1  UNL1       -0.4602
     38 C         141.7465  140.8841  167.6695 C.3     1  UNL1        0.2071
     39 C         141.4135  140.7431  169.1253 C.3     1  UNL1        0.0475
     40 C         140.0412  141.0951  169.6182 C.3     1  UNL1        0.0064
     41 C         139.7993  142.4182  170.2821 C.3     1  UNL1        0.0319
     42 C         140.3479  143.6744  169.6731 C.3     1  UNL1        0.1372
     43 O         140.1206  144.9955  170.3461 O.3     1  UNL1       -0.3820
     44 H         139.1742  145.2076  170.3307 H       1  UNL1        0.2104
@<TRIPOS>BOND
     1    12    13    2
     2    13    14    1
     3    14    15    1
     4    15    16    1
     5    16    17   ar
     6    17    18   ar
     7    18    19   ar
     8    19    11    1
     9    11     9    1
    10     9     1    1
    11     1     2    1
    12     2     3    1
    13     3     4    1
    14     4    24    1
    15    24    25    1
    16    25    26    1
    17    26    27   ar
    18    27    28    1
    19    27    29   ar
    20    29    30   ar
    21    30    31   ar
    22    31    32   ar
    23    32    33   ar
    24    33    34   ar
    25    34    37    1
    26    37    38    1
    27    38    39    1
    28    39    40    1
    29    40    41    1
    30    41    42    1
    31    42    43    1
    32    34    35   ar
    33    35    36   ar
    34     4     5    1
    35     5     6    1
    36     4     7    1
    37     7     8    1
    38    19    20   ar
    39    20    21   ar
    40    21    22    1
    41    22    13   am
    42    21    16   ar
    43     6     1    1
    44     8     1    1
    45    36    26   ar
    46    36    31   ar
    47     9    10    1
    48    43    44    1
    49    22    23    1
@<TRIPOS>MOLECULE
*****
 44 49 0 0 0
SMALL
GASTEIGER

@<TRIPOS>ATOM
      1 C         142.2396  144.5344  163.4394 C.3     1  UNL1        0.0700
      2 C         143.2842  144.1118  162.4494 C.3     1  UNL1        0.0193
      3 C         144.0616  142.8485  162.6726 C.3     1  UNL1        0.0286
      4 C         143.7943  142.0078  163.8859 C.3     1  UNL1        0.0932
      5 C         142.7497  142.4305  164.8759 C.3     1  UNL1        0.0286
      6 C         141.9723  143.6938  164.6526 C.3     1  UNL1        0.0193
      7 O         143.3429  142.6918  163.8064 O.3     1  UNL1       -0.3572
      8 C         142.6400  143.8341  163.6046 C.3     1  UNL1        0.1562
      9 N         141.4622  145.7976  163.2162 N.3     1  UNL1       -0.2926
     10 H         141.1915  146.1433  164.1369 H       1  UNL1        0.1236
     11 C         140.2176  145.7744  162.3792 C.3     1  UNL1        0.1152
     12 O         138.7651  139.2749  158.3300 O.2     1  UNL1       -0.2707
     13 C         138.4855  140.1620  159.5068 C.2     1  UNL1        0.2718
     14 C         137.4422  139.7699  160.5105 C.3     1  UNL1        0.2898
     15 O         137.1626  140.6571  161.6873 O.3     1  UNL1       -0.4628
     16 C         137.9263  141.9364  161.8602 C.ar    1  UNL1        0.1708
     17 C         137.6467  142.8236  163.0370 C.ar    1  UNL1        0.0411
     18 C         138.4104  144.1029  163.2100 C.ar    1  UNL1        0.0193
     19 C         139.4538  144.4951  162.2062 C.ar    1  UNL1        0.0765
     20 N         139.7335  143.6079  161.0295 N.ar    1  UNL1       -0.2304
     21 C         138.9697  142.3285  160.8565 C.ar    1  UNL1        0.1682
     22 N         139.2493  141.4414  159.6797 N.am    1  UNL1       -0.2639
     23 H         139.9341  141.6988  159.0209 H       1  UNL1        0.1565
     24 C         144.5717  140.7446  164.1091 C.3     1  UNL1        0.0320
     25 C         143.8715  139.5079  164.5889 C.3     1  UNL1        0.0327
     26 C         142.7940  138.8838  163.7526 C.ar    1  UNL1        0.0261
     27 C         143.1148  138.3626  162.3830 C.ar    1  UNL1        0.1566
     28 F         144.5131  138.4656  161.8499 F       1  UNL1       -0.2028
     29 C         142.0373  137.7385  161.5467 C.ar    1  UNL1        0.1281
     30 N         140.6390  137.6356  162.0798 N.ar    1  UNL1       -0.2400
     31 C         140.3182  138.1567  163.4493 C.ar    1  UNL1        0.0990
     32 C         138.9199  138.0537  163.9824 C.ar    1  UNL1        0.0254
     33 C         138.5992  138.5749  165.3519 C.ar    1  UNL1        0.0593
     34 C         139.6766  139.1990  166.1883 C.ar    1  UNL1        0.2249
     35 N         141.0749  139.3020  165.6551 N.ar    1  UNL1       -0.2104
     36 C         141.3957  138.7808  164.2857 C.ar    1  UNL1        0.1002
     37 O         139.3558  139.7201  167.5577 O.3     1  UNL1       -0.4602
     38 C         140.0293  140.9608  168.0649 C.3     1  UNL1        0.2071
     39 C         141.2057  140.8511  168.9891 C.3     1  UNL1        0.0475
     40 C         142.5689  141.2662  168.5206 C.3     1  UNL1        0.0064
     41 C         143.3832  142.2247  169.3379 C.3     1  UNL1        0.0319
     42 C         142.7117  143.1086  170.3468 C.3     1  UNL1        0.1372
     43 O         143.5350  143.9977  171.2309 O.3     1  UNL1       -0.3820
     44 H         144.0739  143.4529  171.8255 H       1  UNL1        0.2104
@<TRIPOS>BOND
     1    12    13    2
     2    13    14    1
     3    14    15    1
     4    15    16    1
     5    16    17   ar
     6    17    18   ar
     7    18    19   ar
     8    19    11    1
     9    11     9    1
    10     9     1    1
    11     1     2    1
    12     2     3    1
    13     3     4    1
    14     4    24    1
    15    24    25    1
    16    25    26    1
    17    26    27   ar
    18    27    28    1
    19    27    29   ar
    20    29    30   ar
    21    30    31   ar
    22    31    32   ar
    23    32    33   ar
    24    33    34   ar
    25    34    37    1
    26    37    38    1
    27    38    39    1
    28    39    40    1
    29    40    41    1
    30    41    42    1
    31    42    43    1
    32    34    35   ar
    33    35    36   ar
    34     4     5    1
    35     5     6    1
    36     4     7    1
    37     7     8    1
    38    19    20   ar
    39    20    21   ar
    40    21    22    1
    41    22    13   am
    42    21    16   ar
    43     6     1    1
    44     8     1    1
    45    36    26   ar
    46    36    31   ar
    47     9    10    1
    48    43    44    1
    49    22    23    1
@<TRIPOS>MOLECULE
*****
 44 49 0 0 0
SMALL
GASTEIGER

@<TRIPOS>ATOM
      1 C         139.8467  137.9525  162.4831 C.3     1  UNL1        0.0700
      2 C         139.4027  137.7302  163.8986 C.3     1  UNL1        0.0193
      3 C         140.4140  137.7004  165.0059 C.3     1  UNL1        0.0286
      4 C         141.8694  137.8928  164.6979 C.3     1  UNL1        0.0932
      5 C         142.3134  138.1151  163.2824 C.3     1  UNL1        0.0286
      6 C         141.3020  138.1450  162.1750 C.3     1  UNL1        0.0193
      7 O         141.3522  137.9172  164.0577 O.3     1  UNL1       -0.3572
      8 C         140.4377  137.9442  163.0564 C.3     1  UNL1        0.1562
      9 N         138.8354  137.9824  161.3758 N.3     1  UNL1       -0.2926
     10 H         139.3503  138.1490  160.5112 H       1  UNL1        0.1236
     11 C         137.7140  138.9781  161.4108 C.3     1  UNL1        0.1152
     12 O         141.5898  145.4217  159.3593 O.2     1  UNL1       -0.2707
     13 C         140.5943  144.7306  160.2433 C.2     1  UNL1        0.2718
     14 C         139.8953  145.4961  161.3274 C.3     1  UNL1        0.2898
     15 O         138.8998  144.8050  162.2113 O.3     1  UNL1       -0.4628
     16 C         138.6034  143.3483  162.0112 C.ar    1  UNL1        0.1708
     17 C         137.6079  142.6571  162.8951 C.ar    1  UNL1        0.0411
     18 C         137.3115  141.2004  162.6950 C.ar    1  UNL1        0.0193
     19 C         138.0105  140.4348  161.6109 C.ar    1  UNL1        0.0765
     20 N         139.0059  141.1259  160.7269 N.ar    1  UNL1       -0.2304
     21 C         139.3024  142.5827  160.9271 C.ar    1  UNL1        0.1682
     22 N         140.2978  143.2739  160.0432 N.am    1  UNL1       -0.2639
     23 H         140.7566  142.7714  159.3316 H       1  UNL1        0.1565
     24 C         142.8808  137.8630  165.8052 C.3     1  UNL1        0.0320
     25 C         143.3057  139.1400  166.4675 C.3     1  UNL1        0.0327
     26 C         142.2944  139.9873  167.1812 C.ar    1  UNL1        0.0261
     27 C         141.8893  139.6489  168.5853 C.ar    1  UNL1        0.1566
     28 F         142.4955  138.4631  169.2756 F       1  UNL1       -0.2028
     29 C         140.8781  140.4961  169.2991 C.ar    1  UNL1        0.1281
     30 N         140.2719  141.6819  168.6088 N.ar    1  UNL1       -0.2400
     31 C         140.6770  142.0204  167.2048 C.ar    1  UNL1        0.0990
     32 C         140.0708  143.2062  166.5145 C.ar    1  UNL1        0.0254
     33 C         140.4759  143.5446  165.1104 C.ar    1  UNL1        0.0593
     34 C         141.4871  142.6973  164.3966 C.ar    1  UNL1        0.2249
     35 N         142.0933  141.5116  165.0869 N.ar    1  UNL1       -0.2104
     36 C         141.6883  141.1731  166.4909 C.ar    1  UNL1        0.1002
     37 O         141.8922  143.0358  162.9926 O.3     1  UNL1       -0.4602
     38 C         143.0942  143.8985  162.7461 C.3     1  UNL1        0.2071
     39 C         144.0999  144.1133  163.8382 C.3     1  UNL1        0.0475
     40 C         144.9928  142.9871  164.2676 C.3     1  UNL1        0.0064
     41 C         145.5162  142.0158  163.2516 C.3     1  UNL1        0.0319
     42 C         144.9565  140.6257  163.1848 C.3     1  UNL1        0.1372
     43 O         144.8970  139.9034  161.8716 O.3     1  UNL1       -0.3820
     44 H         144.2756  140.3571  161.2809 H       1  UNL1        0.2104
@<TRIPOS>BOND
     1    12    13    2
     2    13    14    1
     3    14    15    1
     4    15    16    1
     5    16    17   ar
     6    17    18   ar
     7    18    19   ar
     8    19    11    1
     9    11     9    1
    10     9     1    1
    11     1     2    1
    12     2     3    1
    13     3     4    1
    14     4    24    1
    15    24    25    1
    16    25    26    1
    17    26    27   ar
    18    27    28    1
    19    27    29   ar
    20    29    30   ar
    21    30    31   ar
    22    31    32   ar
    23    32    33   ar
    24    33    34   ar
    25    34    37    1
    26    37    38    1
    27    38    39    1
    28    39    40    1
    29    40    41    1
    30    41    42    1
    31    42    43    1
    32    34    35   ar
    33    35    36   ar
    34     4     5    1
    35     5     6    1
    36     4     7    1
    37     7     8    1
    38    19    20   ar
    39    20    21   ar
    40    21    22    1
    41    22    13   am
    42    21    16   ar
    43     6     1    1
    44     8     1    1
    45    36    26   ar
    46    36    31   ar
    47     9    10    1
    48    43    44    1
    49    22    23    1
@<TRIPOS>MOLECULE
*****
 44 49 0 0 0
SMALL
GASTEIGER

@<TRIPOS>ATOM
      1 C         139.8967  144.1063  162.5726 C.3     1  UNL1        0.0700
      2 C         140.0598  143.8868  164.0475 C.3     1  UNL1        0.0193
      3 C         141.4254  143.9345  164.6664 C.3     1  UNL1        0.0286
      4 C         142.6279  144.2017  163.8103 C.3     1  UNL1        0.0932
      5 C         142.4648  144.4212  162.3355 C.3     1  UNL1        0.0286
      6 C         141.0991  144.3735  161.7166 C.3     1  UNL1        0.0193
      7 O         141.8999  144.1850  163.4260 O.3     1  UNL1       -0.3572
      8 C         140.6651  144.1419  162.8664 C.3     1  UNL1        0.1562
      9 N         138.5312  144.0586  161.9538 N.3     1  UNL1       -0.2926
     10 H         137.8679  144.3184  162.6838 H       1  UNL1        0.1236
     11 C         138.0277  142.7834  161.3450 C.3     1  UNL1        0.1152
     12 O         137.6328  138.4355  167.8018 O.2     1  UNL1       -0.2707
     13 C         137.9892  138.5785  166.3518 C.2     1  UNL1        0.2718
     14 C         138.5704  137.4154  165.6040 C.3     1  UNL1        0.2898
     15 O         138.9269  137.5584  164.1540 O.3     1  UNL1       -0.4628
     16 C         138.7021  138.8647  163.4518 C.ar    1  UNL1        0.1708
     17 C         139.0585  139.0077  162.0018 C.ar    1  UNL1        0.0411
     18 C         138.8337  140.3139  161.2995 C.ar    1  UNL1        0.0193
     19 C         138.2525  141.4772  162.0473 C.ar    1  UNL1        0.0765
     20 N         137.8961  141.3342  163.4973 N.ar    1  UNL1       -0.2304
     21 C         138.1209  140.0278  164.1995 C.ar    1  UNL1        0.1682
     22 N         137.7645  139.8848  165.6495 N.am    1  UNL1       -0.2639
     23 H         137.3830  140.6482  166.1403 H       1  UNL1        0.1565
     24 C         143.9934  144.2494  164.4292 C.3     1  UNL1        0.0320
     25 C         144.7540  142.9785  164.6666 C.3     1  UNL1        0.0327
     26 C         144.3790  141.7302  163.9244 C.ar    1  UNL1        0.0261
     27 C         144.7980  141.5529  162.4950 C.ar    1  UNL1        0.1566
     28 F         145.5921  142.6240  161.8079 F       1  UNL1       -0.2028
     29 C         144.4230  140.3045  161.7529 C.ar    1  UNL1        0.1281
     30 N         143.6289  139.2334  162.4400 N.ar    1  UNL1       -0.2400
     31 C         143.2099  139.4106  163.8693 C.ar    1  UNL1        0.0990
     32 C         142.4158  138.3395  164.5564 C.ar    1  UNL1        0.0254
     33 C         141.9968  138.5168  165.9858 C.ar    1  UNL1        0.0593
     34 C         142.3718  139.7651  166.7280 C.ar    1  UNL1        0.2249
     35 N         143.1659  140.8362  166.0409 N.ar    1  UNL1       -0.2104
     36 C         143.5849  140.6590  164.6115 C.ar    1  UNL1        0.1002
     37 O         141.9528  139.9423  168.1573 O.3     1  UNL1       -0.4602
     38 C         140.5344  140.3051  168.4836 C.3     1  UNL1        0.2071
     39 C         140.2285  141.6170  169.1435 C.3     1  UNL1        0.0475
     40 C         141.1663  142.7760  168.9787 C.3     1  UNL1        0.0064
     41 C         142.2410  143.0218  169.9959 C.3     1  UNL1        0.0319
     42 C         143.5787  142.3592  169.8487 C.3     1  UNL1        0.1372
     43 O         143.7728  140.9485  170.3200 O.3     1  UNL1       -0.3820
     44 H         143.6800  140.9143  171.2850 H       1  UNL1        0.2104
@<TRIPOS>BOND
     1    12    13    2
     2    13    14    1
     3    14    15    1
     4    15    16    1
     5    16    17   ar
     6    17    18   ar
     7    18    19   ar
     8    19    11    1
     9    11     9    1
    10     9     1    1
    11     1     2    1
    12     2     3    1
    13     3     4    1
    14     4    24    1
    15    24    25    1
    16    25    26    1
    17    26    27   ar
    18    27    28    1
    19    27    29   ar
    20    29    30   ar
    21    30    31   ar
    22    31    32   ar
    23    32    33   ar
    24    33    34   ar
    25    34    37    1
    26    37    38    1
    27    38    39    1
    28    39    40    1
    29    40    41    1
    30    41    42    1
    31    42    43    1
    32    34    35   ar
    33    35    36   ar
    34     4     5    1
    35     5     6    1
    36     4     7    1
    37     7     8    1
    38    19    20   ar
    39    20    21   ar
    40    21    22    1
    41    22    13   am
    42    21    16   ar
    43     6     1    1
    44     8     1    1
    45    36    26   ar
    46    36    31   ar
    47     9    10    1
    48    43    44    1
    49    22    23    1
@<TRIPOS>MOLECULE
*****
 44 49 0 0 0
SMALL
GASTEIGER

@<TRIPOS>ATOM
      1 C         137.8180  142.9726  162.4266 C.3     1  UNL1        0.0700
      2 C         138.0781  142.2891  161.1169 C.3     1  UNL1        0.0193
      3 C         138.1701  140.7932  161.0569 C.3     1  UNL1        0.0286
      4 C         138.0019  139.9806  162.3065 C.3     1  UNL1        0.0932
      5 C         137.7417  140.6641  163.6162 C.3     1  UNL1        0.0286
      6 C         137.6497  142.1601  163.6762 C.3     1  UNL1        0.0193
      7 O         137.9432  140.7977  162.3891 O.3     1  UNL1       -0.3572
      8 C         137.8600  142.1504  162.4434 C.3     1  UNL1        0.1562
      9 N         137.7260  144.4685  162.4867 N.3     1  UNL1       -0.2926
     10 H         137.4570  144.7846  161.5549 H       1  UNL1        0.1236
     11 C         138.9228  145.2779  162.8899 C.3     1  UNL1        0.1152
     12 O         145.0027  142.5439  158.8514 O.2     1  UNL1       -0.2707
     13 C         144.3434  142.8392  160.1659 C.2     1  UNL1        0.2718
     14 C         145.0513  142.5186  161.4488 C.3     1  UNL1        0.2898
     15 O         144.3920  142.8140  162.7634 O.3     1  UNL1       -0.4628
     16 C         143.0247  143.4300  162.7950 C.ar    1  UNL1        0.1708
     17 C         142.3654  143.7253  164.1096 C.ar    1  UNL1        0.0411
     18 C         140.9981  144.3413  164.1412 C.ar    1  UNL1        0.0193
     19 C         140.2901  144.6620  162.8583 C.ar    1  UNL1        0.0765
     20 N         140.9494  144.3666  161.5437 N.ar    1  UNL1       -0.2304
     21 C         142.3168  143.7506  161.5121 C.ar    1  UNL1        0.1682
     22 N         142.9761  143.4552  160.1976 N.am    1  UNL1       -0.2639
     23 H         142.5114  143.6657  159.3555 H       1  UNL1        0.1565
     24 C         138.0939  138.4847  162.2465 C.3     1  UNL1        0.0320
     25 C         139.3596  137.7938  162.6596 C.3     1  UNL1        0.0327
     26 C         140.6781  138.2531  162.1113 C.ar    1  UNL1        0.0261
     27 C         140.8831  138.3432  160.6281 C.ar    1  UNL1        0.1566
     28 F         139.7697  137.9739  159.6932 F       1  UNL1       -0.2028
     29 C         142.2016  138.8025  160.0798 C.ar    1  UNL1        0.1281
     30 N         143.3150  139.1717  161.0146 N.ar    1  UNL1       -0.2400
     31 C         143.1100  139.0817  162.4978 C.ar    1  UNL1        0.0990
     32 C         144.2234  139.4509  163.4327 C.ar    1  UNL1        0.0254
     33 C         144.0183  139.3609  164.9159 C.ar    1  UNL1        0.0593
     34 C         142.6998  138.9016  165.4642 C.ar    1  UNL1        0.2249
     35 N         141.5864  138.5324  164.5293 N.ar    1  UNL1       -0.2104
     36 C         141.7915  138.6224  163.0462 C.ar    1  UNL1        0.1002
     37 O         142.4948  138.8116  166.9473 O.3     1  UNL1       -0.4602
     38 C         142.0846  140.0282  167.7230 C.3     1  UNL1        0.2071
     39 C         140.7601  140.6785  167.4528 C.3     1  UNL1        0.0475
     40 C         139.4885  139.9643  167.8035 C.3     1  UNL1        0.0064
     41 C         138.8220  139.0793  166.7924 C.3     1  UNL1        0.0319
     42 C         137.4915  138.4588  167.0999 C.3     1  UNL1        0.1372
     43 O         137.3548  136.9661  167.1549 O.3     1  UNL1       -0.3820
     44 H         137.5068  136.5947  166.2718 H       1  UNL1        0.2104
@<TRIPOS>BOND
     1    12    13    2
     2    13    14    1
     3    14    15    1
     4    15    16    1
     5    16    17   ar
     6    17    18   ar
     7    18    19   ar
     8    19    11    1
     9    11     9    1
    10     9     1    1
    11     1     2    1
    12     2     3    1
    13     3     4    1
    14     4    24    1
    15    24    25    1
    16    25    26    1
    17    26    27   ar
    18    27    28    1
    19    27    29   ar
    20    29    30   ar
    21    30    31   ar
    22    31    32   ar
    23    32    33   ar
    24    33    34   ar
    25    34    37    1
    26    37    38    1
    27    38    39    1
    28    39    40    1
    29    40    41    1
    30    41    42    1
    31    42    43    1
    32    34    35   ar
    33    35    36   ar
    34     4     5    1
    35     5     6    1
    36     4     7    1
    37     7     8    1
    38    19    20   ar
    39    20    21   ar
    40    21    22    1
    41    22    13   am
    42    21    16   ar
    43     6     1    1
    44     8     1    1
    45    36    26   ar
    46    36    31   ar
    47     9    10    1
    48    43    44    1
    49    22    23    1
@<TRIPOS>MOLECULE
*****
 44 49 0 0 0
SMALL
GASTEIGER

@<TRIPOS>ATOM
      1 C         141.5102  144.3717  163.1997 C.3     1  UNL1        0.0700
      2 C         140.5586  143.8947  162.1429 C.3     1  UNL1        0.0193
      3 C         139.3622  143.0749  162.5256 C.3     1  UNL1        0.0286
      4 C         139.1174  142.7321  163.9653 C.3     1  UNL1        0.0932
      5 C         140.0689  143.2091  165.0221 C.3     1  UNL1        0.0286
      6 C         141.2653  144.0290  164.6393 C.3     1  UNL1        0.0193
      7 O         139.7866  143.1839  163.8040 O.3     1  UNL1       -0.3572
      8 C         140.8684  143.9252  163.4580 C.3     1  UNL1        0.1562
      9 N         142.7066  145.1916  162.8170 N.3     1  UNL1       -0.2926
     10 H         142.5006  145.6067  161.9083 H       1  UNL1        0.1236
     11 C         144.0543  144.5431  162.7014 C.3     1  UNL1        0.1152
     12 O         143.0799  137.9301  158.6929 O.2     1  UNL1       -0.2707
     13 C         143.5133  138.6410  159.9406 C.2     1  UNL1        0.2718
     14 C         144.0554  137.8585  161.0998 C.3     1  UNL1        0.2898
     15 O         144.4888  138.5694  162.3475 O.3     1  UNL1       -0.4628
     16 C         144.3802  140.0628  162.4359 C.ar    1  UNL1        0.1708
     17 C         144.8136  140.7737  163.6836 C.ar    1  UNL1        0.0411
     18 C         144.7050  142.2671  163.7721 C.ar    1  UNL1        0.0193
     19 C         144.1629  143.0497  162.6129 C.ar    1  UNL1        0.0765
     20 N         143.7295  142.3388  161.3652 N.ar    1  UNL1       -0.2304
     21 C         143.8381  140.8453  161.2767 C.ar    1  UNL1        0.1682
     22 N         143.4047  140.1344  160.0290 N.am    1  UNL1       -0.2639
     23 H         143.0489  140.6480  159.2682 H       1  UNL1        0.1565
     24 C         137.9210  141.9123  164.3480 C.3     1  UNL1        0.0320
     25 C         138.1060  140.5498  164.9475 C.3     1  UNL1        0.0327
     26 C         139.0908  139.5925  164.3444 C.ar    1  UNL1        0.0261
     27 C         138.7723  138.9054  163.0495 C.ar    1  UNL1        0.1566
     28 F         137.4690  139.1758  162.3578 F       1  UNL1       -0.2028
     29 C         139.7570  137.9481  162.4464 C.ar    1  UNL1        0.1281
     30 N         141.0603  137.6778  163.1381 N.ar    1  UNL1       -0.2400
     31 C         141.3788  138.3647  164.4329 C.ar    1  UNL1        0.0990
     32 C         142.6821  138.0944  165.1246 C.ar    1  UNL1        0.0254
     33 C         143.0005  138.7814  166.4195 C.ar    1  UNL1        0.0593
     34 C         142.0158  139.7387  167.0226 C.ar    1  UNL1        0.2249
     35 N         140.7126  140.0091  166.3309 N.ar    1  UNL1       -0.2104
     36 C         140.3940  139.3221  165.0361 C.ar    1  UNL1        0.1002
     37 O         142.3343  140.4257  168.3174 O.3     1  UNL1       -0.4602
     38 C         142.4350  141.9215  168.3679 C.3     1  UNL1        0.2071
     39 C         141.2034  142.7491  168.5877 C.3     1  UNL1        0.0475
     40 C         140.6096  142.8602  169.9606 C.3     1  UNL1        0.0064
     41 C         139.4518  141.9897  170.3498 C.3     1  UNL1        0.0319
     42 C         139.5868  140.4965  170.3021 C.3     1  UNL1        0.1372
     43 O         139.3511  139.7629  169.0151 O.3     1  UNL1       -0.3820
     44 H         138.4196  139.8499  168.7592 H       1  UNL1        0.2104
@<TRIPOS>BOND
     1    12    13    2
     2    13    14    1
     3    14    15    1
     4    15    16    1
     5    16    17   ar
     6    17    18   ar
     7    18    19   ar
     8    19    11    1
     9    11     9    1
    10     9     1    1
    11     1     2    1
    12     2     3    1
    13     3     4    1
    14     4    24    1
    15    24    25    1
    16    25    26    1
    17    26    27   ar
    18    27    28    1
    19    27    29   ar
    20    29    30   ar
    21    30    31   ar
    22    31    32   ar
    23    32    33   ar
    24    33    34   ar
    25    34    37    1
    26    37    38    1
    27    38    39    1
    28    39    40    1
    29    40    41    1
    30    41    42    1
    31    42    43    1
    32    34    35   ar
    33    35    36   ar
    34     4     5    1
    35     5     6    1
    36     4     7    1
    37     7     8    1
    38    19    20   ar
    39    20    21   ar
    40    21    22    1
    41    22    13   am
    42    21    16   ar
    43     6     1    1
    44     8     1    1
    45    36    26   ar
    46    36    31   ar
    47     9    10    1
    48    43    44    1
    49    22    23    1
