@<TRIPOS>MOLECULE
*****
 34 37 0 0 0
SMALL
GASTEIGER

@<TRIPOS>ATOM
      1 C         142.9877  138.6792  166.9531 C.2     1  UNL1        0.2648
      2 O         144.1739  137.8419  167.3298 O.2     1  UNL1       -0.2684
      3 N         142.2527  139.4550  168.0056 N.am    1  UNL1       -0.2996
      4 H         141.4741  140.0045  167.7584 H       1  UNL1        0.1498
      5 C         142.9896  138.5218  161.6752 C.3     1  UNL1        0.0722
      6 C         142.5374  138.6683  163.0979 C.ar    1  UNL1        0.1245
      7 N         143.3961  138.5067  164.3171 N.ar    1  UNL1       -0.2264
      8 C         142.5365  138.7406  165.5238 C.ar    1  UNL1        0.1476
      9 C         141.1465  139.0468  165.0505 C.ar    1  UNL1        0.0648
     10 C         139.9635  139.3452  165.9233 C.3     1  UNL1        0.0522
     11 N         141.1470  139.0021  163.5512 N.ar    1  UNL1       -0.2972
     12 C         139.9647  139.2480  162.6613 C.ar    1  UNL1        0.0648
     13 C         138.8781  138.2193  162.5565 C.ar    1  UNL1        0.0175
     14 C         137.6959  138.4652  161.6667 C.ar    1  UNL1        0.0015
     15 C         137.6002  139.7398  160.8817 C.ar    1  UNL1        0.0001
     16 C         138.6868  140.7686  160.9866 C.ar    1  UNL1        0.0015
     17 C         139.8691  140.5226  161.8764 C.ar    1  UNL1        0.0175
     18 C         142.7039  139.3935  169.4348 C.3     1  UNL1        0.0912
     19 C         143.1289  140.6464  170.1417 C.3     1  UNL1        0.0386
     20 C         143.4080  141.8931  169.3557 C.3     1  UNL1        0.0739
     21 N         142.5080  142.2811  168.2202 N.3     1  UNL1       -0.2697
     22 C         143.0324  142.2840  166.8148 C.3     1  UNL1        0.0938
     23 C         142.1324  142.6721  165.6794 C.3     1  UNL1        0.1081
     24 N         140.7080  143.0571  165.9492 N.pl3   1  UNL1       -0.3040
     25 C         140.1836  143.0542  167.3545 C.3     1  UNL1        0.1081
     26 C         141.0836  142.6662  168.4900 C.3     1  UNL1        0.0938
     27 C         139.8079  143.4451  164.8136 C.ar    1  UNL1        0.0594
     28 C         138.5046  142.7307  164.6118 C.ar    1  UNL1        0.0154
     29 C         137.6046  143.1187  163.4762 C.ar    1  UNL1        0.0022
     30 C         138.0079  144.2212  162.5425 C.ar    1  UNL1        0.0123
     31 C         139.3114  144.9357  162.7444 C.ar    1  UNL1        0.0694
     32 CL        139.7147  146.0382  161.8107 Cl      1  UNL1       -0.0813
     33 C         140.2113  144.5477  163.8799 C.ar    1  UNL1        0.0815
     34 CL        141.5147  145.2621  164.0818 Cl      1  UNL1       -0.0801
@<TRIPOS>BOND
     1     5     6    1
     2     6     7   ar
     3     7     8   ar
     4     8     1    1
     5     1     2    2
     6     1     3   am
     7     3    18    1
     8    18    19    1
     9    19    20    1
    10    20    21    1
    11    21    22    1
    12    22    23    1
    13    23    24    1
    14    24    27    1
    15    27    28   ar
    16    28    29   ar
    17    29    30   ar
    18    30    31   ar
    19    31    32    1
    20    31    33   ar
    21    33    34    1
    22    24    25    1
    23    25    26    1
    24     8     9   ar
    25     9    10    1
    26     9    11   ar
    27    11    12    1
    28    12    13   ar
    29    13    14   ar
    30    14    15   ar
    31    15    16   ar
    32    16    17   ar
    33    11     6   ar
    34    17    12   ar
    35    26    21    1
    36    33    27   ar
    37     3     4    1
@<TRIPOS>MOLECULE
*****
 34 37 0 0 0
SMALL
GASTEIGER

@<TRIPOS>ATOM
      1 C         140.6013  144.9984  162.2441 C.2     1  UNL1        0.2648
      2 O         139.5911  146.0971  162.3939 O.2     1  UNL1       -0.2684
      3 N         141.1615  144.6740  160.8911 N.am    1  UNL1       -0.2996
      4 H         141.8245  143.9529  160.7928 H       1  UNL1        0.1498
      5 C         143.6635  142.6292  165.8345 C.3     1  UNL1        0.0722
      6 C         142.4588  143.1352  165.0979 C.ar    1  UNL1        0.1245
      7 N         142.4728  143.9348  163.8289 N.ar    1  UNL1       -0.2264
      8 C         141.0513  144.2242  163.4476 C.ar    1  UNL1        0.1476
      9 C         140.1586  143.6033  164.4809 C.ar    1  UNL1        0.0648
     10 C         138.6593  143.6478  164.4923 C.3     1  UNL1        0.0522
     11 N         141.0285  142.9303  165.5009 N.ar    1  UNL1       -0.2972
     12 C         140.5518  142.1835  166.7113 C.ar    1  UNL1        0.0648
     13 C         139.9639  140.8116  166.5627 C.ar    1  UNL1        0.0175
     14 C         139.4872  140.0648  167.7731 C.ar    1  UNL1        0.0015
     15 C         139.5985  140.6900  169.1321 C.ar    1  UNL1        0.0001
     16 C         140.1865  142.0619  169.2807 C.ar    1  UNL1        0.0015
     17 C         140.6632  142.8087  168.0703 C.ar    1  UNL1        0.0175
     18 C         140.7115  145.4482  159.6878 C.3     1  UNL1        0.0912
     19 C         140.4127  144.7323  158.4039 C.3     1  UNL1        0.0386
     20 C         139.5013  143.5410  158.4040 C.3     1  UNL1        0.0739
     21 N         139.6250  142.5021  159.4790 N.3     1  UNL1       -0.2697
     22 C         140.7535  141.5147  159.4414 C.3     1  UNL1        0.0938
     23 C         140.8772  140.4758  160.5163 C.3     1  UNL1        0.1081
     24 N         139.8724  140.4244  161.6288 N.pl3   1  UNL1       -0.3040
     25 C         138.7438  141.4118  161.6664 C.3     1  UNL1        0.1081
     26 C         138.6202  142.4506  160.5915 C.3     1  UNL1        0.0938
     27 C         139.9961  139.3855  162.7037 C.ar    1  UNL1        0.0594
     28 C         138.8537  138.4540  162.9816 C.ar    1  UNL1        0.0154
     29 C         138.9774  137.4151  164.0565 C.ar    1  UNL1        0.0022
     30 C         140.2436  137.3077  164.8535 C.ar    1  UNL1        0.0123
     31 C         141.3860  138.2392  164.5756 C.ar    1  UNL1        0.0694
     32 CL        142.6522  138.1318  165.3726 Cl      1  UNL1       -0.0813
     33 C         141.2623  139.2780  163.5007 C.ar    1  UNL1        0.0815
     34 CL        142.4047  140.2095  163.2228 Cl      1  UNL1       -0.0801
@<TRIPOS>BOND
     1     5     6    1
     2     6     7   ar
     3     7     8   ar
     4     8     1    1
     5     1     2    2
     6     1     3   am
     7     3    18    1
     8    18    19    1
     9    19    20    1
    10    20    21    1
    11    21    22    1
    12    22    23    1
    13    23    24    1
    14    24    27    1
    15    27    28   ar
    16    28    29   ar
    17    29    30   ar
    18    30    31   ar
    19    31    32    1
    20    31    33   ar
    21    33    34    1
    22    24    25    1
    23    25    26    1
    24     8     9   ar
    25     9    10    1
    26     9    11   ar
    27    11    12    1
    28    12    13   ar
    29    13    14   ar
    30    14    15   ar
    31    15    16   ar
    32    16    17   ar
    33    11     6   ar
    34    17    12   ar
    35    26    21    1
    36    33    27   ar
    37     3     4    1
@<TRIPOS>MOLECULE
*****
 34 37 0 0 0
SMALL
GASTEIGER

@<TRIPOS>ATOM
      1 C         138.7388  139.2119  167.0456 C.2     1  UNL1        0.2648
      2 O         137.5293  138.5008  167.5761 O.2     1  UNL1       -0.2684
      3 N         139.5379  140.1065  167.9462 N.am    1  UNL1       -0.2996
      4 H         140.3318  140.5733  167.5980 H       1  UNL1        0.1498
      5 C         140.9203  137.2393  162.6603 C.3     1  UNL1        0.0722
      6 C         140.1518  138.1218  163.5988 C.ar    1  UNL1        0.1245
      7 N         139.9911  137.9104  165.0751 N.ar    1  UNL1       -0.2264
      8 C         139.1491  139.0284  165.6145 C.ar    1  UNL1        0.1476
      9 C         138.7895  139.9309  164.4716 C.ar    1  UNL1        0.0648
     10 C         137.9564  141.1752  164.5591 C.3     1  UNL1        0.0522
     11 N         139.4092  139.3705  163.2258 N.ar    1  UNL1       -0.2972
     12 C         139.3046  139.9561  161.8488 C.ar    1  UNL1        0.0648
     13 C         140.4044  140.8277  161.3190 C.ar    1  UNL1        0.0175
     14 C         140.2998  141.4133  159.9420 C.ar    1  UNL1        0.0015
     15 C         139.0954  141.1272  159.0948 C.ar    1  UNL1        0.0001
     16 C         137.9957  140.2556  159.6246 C.ar    1  UNL1        0.0015
     17 C         138.1002  139.6700  161.0016 C.ar    1  UNL1        0.0175
     18 C         139.1276  140.2900  169.3772 C.3     1  UNL1        0.0912
     19 C         139.8054  141.3254  170.2250 C.3     1  UNL1        0.0386
     20 C         140.2368  142.6271  169.6173 C.3     1  UNL1        0.0739
     21 N         140.9665  142.6378  168.3067 N.3     1  UNL1       -0.2697
     22 C         142.4213  142.2762  168.2554 C.3     1  UNL1        0.0938
     23 C         143.1509  142.2869  166.9449 C.3     1  UNL1        0.1081
     24 N         142.4257  142.6591  165.6857 N.pl3   1  UNL1       -0.3040
     25 C         140.9709  143.0206  165.7371 C.3     1  UNL1        0.1081
     26 C         140.2413  143.0100  167.0476 C.3     1  UNL1        0.0938
     27 C         143.1554  142.6697  164.3752 C.ar    1  UNL1        0.0594
     28 C         143.6808  143.9602  163.8197 C.ar    1  UNL1        0.0154
     29 C         144.4106  143.9708  162.5092 C.ar    1  UNL1        0.0022
     30 C         144.6148  142.6909  161.7541 C.ar    1  UNL1        0.0123
     31 C         144.0894  141.4004  162.3096 C.ar    1  UNL1        0.0694
     32 CL        144.2936  140.1205  161.5545 Cl      1  UNL1       -0.0813
     33 C         143.3597  141.3898  163.6201 C.ar    1  UNL1        0.0815
     34 CL        142.8343  140.0993  164.1756 Cl      1  UNL1       -0.0801
@<TRIPOS>BOND
     1     5     6    1
     2     6     7   ar
     3     7     8   ar
     4     8     1    1
     5     1     2    2
     6     1     3   am
     7     3    18    1
     8    18    19    1
     9    19    20    1
    10    20    21    1
    11    21    22    1
    12    22    23    1
    13    23    24    1
    14    24    27    1
    15    27    28   ar
    16    28    29   ar
    17    29    30   ar
    18    30    31   ar
    19    31    32    1
    20    31    33   ar
    21    33    34    1
    22    24    25    1
    23    25    26    1
    24     8     9   ar
    25     9    10    1
    26     9    11   ar
    27    11    12    1
    28    12    13   ar
    29    13    14   ar
    30    14    15   ar
    31    15    16   ar
    32    16    17   ar
    33    11     6   ar
    34    17    12   ar
    35    26    21    1
    36    33    27   ar
    37     3     4    1
@<TRIPOS>MOLECULE
*****
 34 37 0 0 0
SMALL
GASTEIGER

@<TRIPOS>ATOM
      1 C         138.8493  139.8204  167.1971 C.2     1  UNL1        0.2648
      2 O         138.0268  138.6588  167.6707 O.2     1  UNL1       -0.2684
      3 N         139.6336  140.6353  168.1823 N.am    1  UNL1       -0.2996
      4 H         140.1734  141.3977  167.8714 H       1  UNL1        0.1498
      5 C         138.0821  142.3126  162.6056 C.3     1  UNL1        0.0722
      6 C         138.5350  141.3124  163.6277 C.ar    1  UNL1        0.1245
      7 N         138.2442  141.3613  165.0984 N.ar    1  UNL1       -0.2264
      8 C         138.8876  140.1669  165.7381 C.ar    1  UNL1        0.1476
      9 C         139.5760  139.3797  164.6627 C.ar    1  UNL1        0.0648
     10 C         140.3471  138.1078  164.8575 C.3     1  UNL1        0.0522
     11 N         139.3581  140.0876  163.3584 N.ar    1  UNL1       -0.2972
     12 C         139.8729  139.6481  162.0198 C.ar    1  UNL1        0.0648
     13 C         141.2652  140.0108  161.5958 C.ar    1  UNL1        0.0175
     14 C         141.7800  139.5712  160.2572 C.ar    1  UNL1        0.0015
     15 C         140.9024  138.7689  159.3427 C.ar    1  UNL1        0.0001
     16 C         139.5101  138.4062  159.7668 C.ar    1  UNL1        0.0015
     17 C         138.9953  138.8458  161.1053 C.ar    1  UNL1        0.0175
     18 C         139.5953  140.2888  169.6412 C.3     1  UNL1        0.0912
     19 C         140.7902  139.6598  170.2943 C.3     1  UNL1        0.0386
     20 C         142.1596  140.2225  170.0534 C.3     1  UNL1        0.0739
     21 N         142.5669  140.6389  168.6711 N.3     1  UNL1       -0.2697
     22 C         142.9046  142.0728  168.3886 C.3     1  UNL1        0.0938
     23 C         143.3119  142.4890  167.0063 C.3     1  UNL1        0.1081
     24 N         143.3815  141.4714  165.9065 N.pl3   1  UNL1       -0.3040
     25 C         143.0437  140.0375  166.1889 C.3     1  UNL1        0.1081
     26 C         142.6365  139.6213  167.5712 C.3     1  UNL1        0.0938
     27 C         143.7888  141.8878  164.5241 C.ar    1  UNL1        0.0594
     28 C         145.1340  141.4960  163.9886 C.ar    1  UNL1        0.0154
     29 C         145.5413  141.9123  162.6063 C.ar    1  UNL1        0.0022
     30 C         144.6033  142.7205  161.7595 C.ar    1  UNL1        0.0123
     31 C         143.2580  143.1124  162.2951 C.ar    1  UNL1        0.0694
     32 CL        142.3200  143.9205  161.4483 Cl      1  UNL1       -0.0813
     33 C         142.8508  142.6960  163.6774 C.ar    1  UNL1        0.0815
     34 CL        141.5055  143.0878  164.2129 Cl      1  UNL1       -0.0801
@<TRIPOS>BOND
     1     5     6    1
     2     6     7   ar
     3     7     8   ar
     4     8     1    1
     5     1     2    2
     6     1     3   am
     7     3    18    1
     8    18    19    1
     9    19    20    1
    10    20    21    1
    11    21    22    1
    12    22    23    1
    13    23    24    1
    14    24    27    1
    15    27    28   ar
    16    28    29   ar
    17    29    30   ar
    18    30    31   ar
    19    31    32    1
    20    31    33   ar
    21    33    34    1
    22    24    25    1
    23    25    26    1
    24     8     9   ar
    25     9    10    1
    26     9    11   ar
    27    11    12    1
    28    12    13   ar
    29    13    14   ar
    30    14    15   ar
    31    15    16   ar
    32    16    17   ar
    33    11     6   ar
    34    17    12   ar
    35    26    21    1
    36    33    27   ar
    37     3     4    1
@<TRIPOS>MOLECULE
*****
 34 37 0 0 0
SMALL
GASTEIGER

@<TRIPOS>ATOM
      1 C         138.8249  139.7538  159.2306 C.2     1  UNL1        0.2648
      2 O         137.7425  139.9408  158.2091 O.2     1  UNL1       -0.2684
      3 N         140.0652  138.9878  158.8775 N.am    1  UNL1       -0.2996
      4 H         140.7756  138.8651  159.5480 H       1  UNL1        0.1498
      5 C         137.6524  143.0465  163.1885 C.3     1  UNL1        0.0722
      6 C         138.1279  141.8463  162.4246 C.ar    1  UNL1        0.1245
      7 N         138.0955  141.6803  160.9341 N.ar    1  UNL1       -0.2264
      8 C         138.6668  140.3329  160.6053 C.ar    1  UNL1        0.1476
      9 C         139.0523  139.6662  161.8925 C.ar    1  UNL1        0.0648
     10 C         139.6636  138.3034  162.0310 C.3     1  UNL1        0.0522
     11 N         138.7193  140.6015  163.0169 N.ar    1  UNL1       -0.2972
     12 C         138.9390  140.3384  164.4772 C.ar    1  UNL1        0.0648
     13 C         138.0761  139.3459  165.1985 C.ar    1  UNL1        0.0175
     14 C         138.2958  139.0827  166.6588 C.ar    1  UNL1        0.0015
     15 C         139.3785  139.8120  167.3977 C.ar    1  UNL1        0.0001
     16 C         140.2415  140.8044  166.6764 C.ar    1  UNL1        0.0015
     17 C         140.0217  141.0676  165.2161 C.ar    1  UNL1        0.0175
     18 C         140.2232  138.4088  157.5029 C.3     1  UNL1        0.0912
     19 C         141.3070  137.4081  157.2306 C.3     1  UNL1        0.0386
     20 C         142.7314  137.7344  157.5690 C.3     1  UNL1        0.0739
     21 N         143.0415  138.5983  158.7554 N.3     1  UNL1       -0.2697
     22 C         143.4063  140.0399  158.5586 C.3     1  UNL1        0.0938
     23 C         143.7163  140.9037  159.7450 C.3     1  UNL1        0.1081
     24 N         143.6615  140.3260  161.1282 N.pl3   1  UNL1       -0.3040
     25 C         143.2967  138.8844  161.3250 C.3     1  UNL1        0.1081
     26 C         142.9866  138.0206  160.1386 C.3     1  UNL1        0.0938
     27 C         143.9715  141.1899  162.3147 C.ar    1  UNL1        0.0594
     28 C         145.2941  141.0617  163.0106 C.ar    1  UNL1        0.0154
     29 C         145.6041  141.9257  164.1971 C.ar    1  UNL1        0.0022
     30 C         144.5916  142.9177  164.6875 C.ar    1  UNL1        0.0123
     31 C         143.2690  143.0459  163.9915 C.ar    1  UNL1        0.0694
     32 CL        142.2564  144.0380  164.4819 Cl      1  UNL1       -0.0813
     33 C         142.9590  142.1820  162.8051 C.ar    1  UNL1        0.0815
     34 CL        141.6364  142.3102  162.1091 Cl      1  UNL1       -0.0801
@<TRIPOS>BOND
     1     5     6    1
     2     6     7   ar
     3     7     8   ar
     4     8     1    1
     5     1     2    2
     6     1     3   am
     7     3    18    1
     8    18    19    1
     9    19    20    1
    10    20    21    1
    11    21    22    1
    12    22    23    1
    13    23    24    1
    14    24    27    1
    15    27    28   ar
    16    28    29   ar
    17    29    30   ar
    18    30    31   ar
    19    31    32    1
    20    31    33   ar
    21    33    34    1
    22    24    25    1
    23    25    26    1
    24     8     9   ar
    25     9    10    1
    26     9    11   ar
    27    11    12    1
    28    12    13   ar
    29    13    14   ar
    30    14    15   ar
    31    15    16   ar
    32    16    17   ar
    33    11     6   ar
    34    17    12   ar
    35    26    21    1
    36    33    27   ar
    37     3     4    1
@<TRIPOS>MOLECULE
*****
 34 37 0 0 0
SMALL
GASTEIGER

@<TRIPOS>ATOM
      1 C         143.2686  138.3655  160.1817 C.2     1  UNL1        0.2648
      2 O         143.3231  136.8665  160.1673 O.2     1  UNL1       -0.2684
      3 N         142.8924  139.1143  158.9376 N.am    1  UNL1       -0.2996
      4 H         142.8567  140.0981  158.9470 H       1  UNL1        0.1498
      5 C         145.5535  141.6553  163.6222 C.3     1  UNL1        0.0722
      6 C         144.6406  140.6278  163.0216 C.ar    1  UNL1        0.1245
      7 N         144.6777  140.1356  161.6052 N.ar    1  UNL1       -0.2264
      8 C         143.5903  139.1156  161.4402 C.ar    1  UNL1        0.1476
      9 C         142.8811  138.9775  162.7547 C.ar    1  UNL1        0.0648
     10 C         141.7256  138.0649  163.0414 C.3     1  UNL1        0.0522
     11 N         143.5302  139.9120  163.7321 N.ar    1  UNL1       -0.2972
     12 C         143.1377  140.0981  165.1678 C.ar    1  UNL1        0.0648
     13 C         142.5972  141.4179  165.6325 C.ar    1  UNL1        0.0175
     14 C         142.2048  141.6041  167.0683 C.ar    1  UNL1        0.0015
     15 C         142.3529  140.4704  168.0393 C.ar    1  UNL1        0.0001
     16 C         142.8935  139.1506  167.5746 C.ar    1  UNL1        0.0015
     17 C         143.2859  138.9645  166.1389 C.ar    1  UNL1        0.0175
     18 C         142.5707  138.3641  157.6792 C.3     1  UNL1        0.0912
     19 C         141.2419  137.6843  157.5301 C.3     1  UNL1        0.0386
     20 C         139.9764  138.4857  157.6089 C.3     1  UNL1        0.0739
     21 N         139.8163  139.5322  158.6716 N.3     1  UNL1       -0.2697
     22 C         139.9038  140.9858  158.3120 C.3     1  UNL1        0.0938
     23 C         139.7438  142.0322  159.3746 C.3     1  UNL1        0.1081
     24 N         139.4962  141.6251  160.7969 N.pl3   1  UNL1       -0.3040
     25 C         139.4087  140.1715  161.1566 C.3     1  UNL1        0.1081
     26 C         139.5688  139.1251  160.0939 C.3     1  UNL1        0.0938
     27 C         139.3361  142.6717  161.8596 C.ar    1  UNL1        0.0594
     28 C         137.9652  143.1278  162.2626 C.ar    1  UNL1        0.0154
     29 C         137.8051  144.1743  163.3252 C.ar    1  UNL1        0.0022
     30 C         139.0161  144.7647  163.9849 C.ar    1  UNL1        0.0123
     31 C         140.3871  144.3085  163.5819 C.ar    1  UNL1        0.0694
     32 CL        141.5980  144.8989  164.2415 Cl      1  UNL1       -0.0813
     33 C         140.5471  143.2620  162.5192 C.ar    1  UNL1        0.0815
     34 CL        141.9181  142.8058  162.1162 Cl      1  UNL1       -0.0801
@<TRIPOS>BOND
     1     5     6    1
     2     6     7   ar
     3     7     8   ar
     4     8     1    1
     5     1     2    2
     6     1     3   am
     7     3    18    1
     8    18    19    1
     9    19    20    1
    10    20    21    1
    11    21    22    1
    12    22    23    1
    13    23    24    1
    14    24    27    1
    15    27    28   ar
    16    28    29   ar
    17    29    30   ar
    18    30    31   ar
    19    31    32    1
    20    31    33   ar
    21    33    34    1
    22    24    25    1
    23    25    26    1
    24     8     9   ar
    25     9    10    1
    26     9    11   ar
    27    11    12    1
    28    12    13   ar
    29    13    14   ar
    30    14    15   ar
    31    15    16   ar
    32    16    17   ar
    33    11     6   ar
    34    17    12   ar
    35    26    21    1
    36    33    27   ar
    37     3     4    1
@<TRIPOS>MOLECULE
*****
 34 37 0 0 0
SMALL
GASTEIGER

@<TRIPOS>ATOM
      1 C         138.3202  141.8774  159.8784 C.2     1  UNL1        0.2648
      2 O         138.0608  140.5168  159.3025 O.2     1  UNL1       -0.2684
      3 N         138.6035  143.0355  158.9682 N.am    1  UNL1       -0.2996
      4 H         138.7738  143.9284  159.3461 H       1  UNL1        0.1498
      5 C         137.6327  144.0540  164.6398 C.3     1  UNL1        0.0722
      6 C         137.9804  143.0802  163.5530 C.ar    1  UNL1        0.1245
      7 N         137.8304  143.3136  162.0789 N.ar    1  UNL1       -0.2264
      8 C         138.2964  142.0798  161.3645 C.ar    1  UNL1        0.1476
      9 C         138.7344  141.0838  162.3971 C.ar    1  UNL1        0.0648
     10 C         139.2732  139.7106  162.1248 C.3     1  UNL1        0.0522
     11 N         138.5391  141.7021  163.7497 N.ar    1  UNL1       -0.2972
     12 C         138.8483  141.0558  165.0675 C.ar    1  UNL1        0.0648
     13 C         139.8954  141.6459  165.9649 C.ar    1  UNL1        0.0175
     14 C         140.2046  140.9996  167.2827 C.ar    1  UNL1        0.0015
     15 C         139.4666  139.7632  167.7032 C.ar    1  UNL1        0.0001
     16 C         138.4194  139.1731  166.8058 C.ar    1  UNL1        0.0015
     17 C         138.1103  139.8194  165.4880 C.ar    1  UNL1        0.0175
     18 C         138.6274  142.8330  157.4821 C.3     1  UNL1        0.0912
     19 C         139.6675  143.5205  156.6481 C.3     1  UNL1        0.0386
     20 C         140.5178  144.6000  157.2494 C.3     1  UNL1        0.0739
     21 N         141.1309  144.4045  158.6044 N.3     1  UNL1       -0.2697
     22 C         140.5951  145.1576  159.7858 C.3     1  UNL1        0.0938
     23 C         141.2082  144.9621  161.1407 C.3     1  UNL1        0.1081
     24 N         142.3571  144.0134  161.3142 N.pl3   1  UNL1       -0.3040
     25 C         142.8929  143.2603  160.1328 C.3     1  UNL1        0.1081
     26 C         142.2798  143.4558  158.7779 C.3     1  UNL1        0.0938
     27 C         142.9703  143.8179  162.6692 C.ar    1  UNL1        0.0594
     28 C         143.5855  144.9812  163.3889 C.ar    1  UNL1        0.0154
     29 C         144.1986  144.7857  164.7439 C.ar    1  UNL1        0.0022
     30 C         144.1965  143.4268  165.3791 C.ar    1  UNL1        0.0123
     31 C         143.5812  142.2634  164.6592 C.ar    1  UNL1        0.0694
     32 CL        143.5791  140.9045  165.2944 Cl      1  UNL1       -0.0813
     33 C         142.9681  142.4590  163.3043 C.ar    1  UNL1        0.0815
     34 CL        142.3529  141.2956  162.5845 Cl      1  UNL1       -0.0801
@<TRIPOS>BOND
     1     5     6    1
     2     6     7   ar
     3     7     8   ar
     4     8     1    1
     5     1     2    2
     6     1     3   am
     7     3    18    1
     8    18    19    1
     9    19    20    1
    10    20    21    1
    11    21    22    1
    12    22    23    1
    13    23    24    1
    14    24    27    1
    15    27    28   ar
    16    28    29   ar
    17    29    30   ar
    18    30    31   ar
    19    31    32    1
    20    31    33   ar
    21    33    34    1
    22    24    25    1
    23    25    26    1
    24     8     9   ar
    25     9    10    1
    26     9    11   ar
    27    11    12    1
    28    12    13   ar
    29    13    14   ar
    30    14    15   ar
    31    15    16   ar
    32    16    17   ar
    33    11     6   ar
    34    17    12   ar
    35    26    21    1
    36    33    27   ar
    37     3     4    1
@<TRIPOS>MOLECULE
*****
 34 37 0 0 0
SMALL
GASTEIGER

@<TRIPOS>ATOM
      1 C         141.7997  144.4776  161.6575 C.2     1  UNL1        0.2648
      2 O         140.8103  145.4915  162.1507 O.2     1  UNL1       -0.2684
      3 N         142.0463  144.3246  160.1859 N.am    1  UNL1       -0.2996
      4 H         142.6956  143.6591  159.8622 H       1  UNL1        0.1498
      5 C         145.6272  141.7028  164.0096 C.3     1  UNL1        0.0722
      6 C         144.3017  142.3414  163.7171 C.ar    1  UNL1        0.1245
      7 N         143.9762  143.1904  162.5242 N.ar    1  UNL1       -0.2264
      8 C         142.5425  143.6168  162.6360 C.ar    1  UNL1        0.1476
      9 C         141.9819  143.0312  163.8981 C.ar    1  UNL1        0.0648
     10 C         140.5800  143.2037  164.4032 C.3     1  UNL1        0.0522
     11 N         143.0691  142.2430  164.5663 N.ar    1  UNL1       -0.2972
     12 C         142.9455  141.4888  165.8569 C.ar    1  UNL1        0.0648
     13 C         143.0069  142.2230  167.1635 C.ar    1  UNL1        0.0175
     14 C         142.8833  141.4688  168.4541 C.ar    1  UNL1        0.0015
     15 C         142.6982  139.9803  168.4383 C.ar    1  UNL1        0.0001
     16 C         142.6368  139.2461  167.1317 C.ar    1  UNL1        0.0015
     17 C         142.7605  140.0003  165.8410 C.ar    1  UNL1        0.0175
     18 C         141.3035  145.1854  159.2075 C.3     1  UNL1        0.0912
     19 C         140.6069  144.5594  158.0358 C.3     1  UNL1        0.0386
     20 C         139.4825  143.5924  158.2607 C.3     1  UNL1        0.0739
     21 N         139.5704  142.5843  159.3681 N.3     1  UNL1       -0.2697
     22 C         138.7468  142.7600  160.6093 C.3     1  UNL1        0.0938
     23 C         138.8348  141.7520  161.7166 C.3     1  UNL1        0.1081
     24 N         139.7464  140.5683  161.5827 N.pl3   1  UNL1       -0.3040
     25 C         140.5700  140.3927  160.3415 C.3     1  UNL1        0.1081
     26 C         140.4820  141.4007  159.2342 C.3     1  UNL1        0.0938
     27 C         139.8343  139.5603  162.6901 C.ar    1  UNL1        0.0594
     28 C         140.8575  138.4653  162.6280 C.ar    1  UNL1        0.0154
     29 C         140.9454  137.4572  163.7354 C.ar    1  UNL1        0.0022
     30 C         140.0101  137.5443  164.9048 C.ar    1  UNL1        0.0123
     31 C         138.9869  138.6394  164.9669 C.ar    1  UNL1        0.0694
     32 CL        138.0515  138.7265  166.1363 Cl      1  UNL1       -0.0813
     33 C         138.8990  139.6474  163.8595 C.ar    1  UNL1        0.0815
     34 CL        137.8757  140.7425  163.9216 Cl      1  UNL1       -0.0801
@<TRIPOS>BOND
     1     5     6    1
     2     6     7   ar
     3     7     8   ar
     4     8     1    1
     5     1     2    2
     6     1     3   am
     7     3    18    1
     8    18    19    1
     9    19    20    1
    10    20    21    1
    11    21    22    1
    12    22    23    1
    13    23    24    1
    14    24    27    1
    15    27    28   ar
    16    28    29   ar
    17    29    30   ar
    18    30    31   ar
    19    31    32    1
    20    31    33   ar
    21    33    34    1
    22    24    25    1
    23    25    26    1
    24     8     9   ar
    25     9    10    1
    26     9    11   ar
    27    11    12    1
    28    12    13   ar
    29    13    14   ar
    30    14    15   ar
    31    15    16   ar
    32    16    17   ar
    33    11     6   ar
    34    17    12   ar
    35    26    21    1
    36    33    27   ar
    37     3     4    1
@<TRIPOS>MOLECULE
*****
 34 37 0 0 0
SMALL
GASTEIGER

@<TRIPOS>ATOM
      1 C         139.0082  139.3224  159.2046 C.2     1  UNL1        0.2648
      2 O         138.0420  139.8777  158.2005 O.2     1  UNL1       -0.2684
      3 N         140.0536  138.3367  158.7740 N.am    1  UNL1       -0.2996
      4 H         140.6877  137.9723  159.4330 H       1  UNL1        0.1498
      5 C         138.6062  139.2041  164.4682 C.3     1  UNL1        0.0722
      6 C         138.7441  139.6985  163.0588 C.ar    1  UNL1        0.1245
      7 N         138.7807  138.8461  161.8251 N.ar    1  UNL1       -0.2264
      8 C         138.9288  139.7529  160.6394 C.ar    1  UNL1        0.1476
      9 C         138.9837  141.1657  161.1403 C.ar    1  UNL1        0.0648
     10 C         139.1276  142.3961  160.2944 C.3     1  UNL1        0.0522
     11 N         138.8695  141.1322  162.6356 N.ar    1  UNL1       -0.2972
     12 C         138.8791  142.3230  163.5475 C.ar    1  UNL1        0.0648
     13 C         137.6101  143.0797  163.8063 C.ar    1  UNL1        0.0175
     14 C         137.6196  144.2706  164.7182 C.ar    1  UNL1        0.0015
     15 C         138.8982  144.7048  165.3714 C.ar    1  UNL1        0.0001
     16 C         140.1673  143.9481  165.1127 C.ar    1  UNL1        0.0015
     17 C         140.1577  142.7573  164.2007 C.ar    1  UNL1        0.0175
     18 C         140.1329  137.9063  157.3393 C.3     1  UNL1        0.0912
     19 C         141.4698  137.7110  156.6876 C.3     1  UNL1        0.0386
     20 C         142.6797  137.4285  157.5280 C.3     1  UNL1        0.0739
     21 N         143.0446  138.3526  158.6519 N.3     1  UNL1       -0.2697
     22 C         143.4152  139.7768  158.3617 C.3     1  UNL1        0.0938
     23 C         143.7802  140.7007  159.4856 C.3     1  UNL1        0.1081
     24 N         143.7745  140.2004  160.8997 N.pl3   1  UNL1       -0.3040
     25 C         143.4039  138.7762  161.1899 C.3     1  UNL1        0.1081
     26 C         143.0390  137.8523  160.0660 C.3     1  UNL1        0.0938
     27 C         144.1394  141.1244  162.0236 C.ar    1  UNL1        0.0594
     28 C         145.1326  140.6891  163.0600 C.ar    1  UNL1        0.0154
     29 C         145.4975  141.6131  164.1839 C.ar    1  UNL1        0.0022
     30 C         144.8693  142.9724  164.2713 C.ar    1  UNL1        0.0123
     31 C         143.8761  143.4077  163.2349 C.ar    1  UNL1        0.0694
     32 CL        143.2478  144.7670  163.3223 Cl      1  UNL1       -0.0813
     33 C         143.5112  142.4837  162.1110 C.ar    1  UNL1        0.0815
     34 CL        142.5180  142.9190  161.0746 Cl      1  UNL1       -0.0801
@<TRIPOS>BOND
     1     5     6    1
     2     6     7   ar
     3     7     8   ar
     4     8     1    1
     5     1     2    2
     6     1     3   am
     7     3    18    1
     8    18    19    1
     9    19    20    1
    10    20    21    1
    11    21    22    1
    12    22    23    1
    13    23    24    1
    14    24    27    1
    15    27    28   ar
    16    28    29   ar
    17    29    30   ar
    18    30    31   ar
    19    31    32    1
    20    31    33   ar
    21    33    34    1
    22    24    25    1
    23    25    26    1
    24     8     9   ar
    25     9    10    1
    26     9    11   ar
    27    11    12    1
    28    12    13   ar
    29    13    14   ar
    30    14    15   ar
    31    15    16   ar
    32    16    17   ar
    33    11     6   ar
    34    17    12   ar
    35    26    21    1
    36    33    27   ar
    37     3     4    1
