@<TRIPOS>MOLECULE
*****
 29 32 0 0 0
SMALL
GASTEIGER

@<TRIPOS>ATOM
      1 C         139.8862  140.0127  167.0359 C.ar    1  UNL1        0.1057
      2 C         138.6201  139.3599  166.5661 C.ar    1  UNL1        0.0199
      3 C         138.6206  138.5393  165.3105 C.ar    1  UNL1        0.0205
      4 C         139.8872  138.3713  164.5247 C.ar    1  UNL1        0.0847
      5 N         139.8876  137.5507  163.2691 N.ar    1  UNL1       -0.2436
      6 C         141.1542  137.3827  162.4833 C.ar    1  UNL1        0.1023
      7 C         142.4205  138.0355  162.9532 C.ar    1  UNL1        0.0608
      8 C         142.4200  138.8562  164.2087 C.ar    1  UNL1        0.1386
      9 C         141.1533  139.0241  164.9945 C.ar    1  UNL1        0.0558
     10 C         141.1528  139.8447  166.2501 C.ar    1  UNL1        0.0232
     11 S         139.8858  140.8333  168.2915 S.O2    1  UNL1        0.0054
     12 O         140.5898  141.9422  167.5670 O.2     1  UNL1       -0.1687
     13 O         139.1818  139.7245  169.0160 O.2     1  UNL1       -0.1687
     14 C         139.2075  140.5338  170.2790 C.3     1  UNL1        0.0240
     15 C         139.8853  141.6540  169.5471 C.3     1  UNL1        0.1151
     16 C         140.5631  142.7742  168.8151 C.3     1  UNL1        0.0240
     17 C         139.8848  142.4747  170.8027 C.3     1  UNL1        0.0240
     18 N         143.6861  139.5089  164.6786 N.pl3   1  UNL1       -0.1969
     19 H         144.1535  139.1620  165.4726 H       1  UNL1        0.2986
     20 C         144.2402  140.6903  163.9386 C.2     1  UNL1        0.3531
     21 N         145.5140  140.7163  163.1469 N.2     1  UNL1        0.0802
     22 N         145.6789  142.0951  162.5794 N.2     1  UNL1       -0.0381
     23 C         144.5070  142.9210  163.0205 C.2     1  UNL1        0.1170
     24 C         144.1346  144.3516  162.7658 C.3     1  UNL1        0.0783
     25 C         142.8732  144.9138  163.3510 C.2     1  UNL1        0.0100
     26 C         141.9840  144.0456  164.1910 C.2     1  UNL1        0.1366
     27 F         140.7226  144.6078  164.7762 F       1  UNL1       -0.2045
     28 C         142.3564  142.6150  164.4458 C.2     1  UNL1        0.0381
     29 C         143.6179  142.0528  163.8605 C.2     1  UNL1        0.1045
@<TRIPOS>BOND
     1    14    15    1
     2    15    16    1
     3    15    17    1
     4    15    11    1
     5    11    12    2
     6    11    13    2
     7    11     1    1
     8     1     2   ar
     9     2     3   ar
    10     3     4   ar
    11     4     5   ar
    12     5     6   ar
    13     6     7   ar
    14     7     8   ar
    15     8    18    1
    16    18    20    1
    17    20    21    2
    18    21    22    1
    19    22    23    2
    20    23    24    1
    21    24    25    1
    22    25    26    2
    23    26    27    1
    24    26    28    1
    25    28    29    2
    26     8     9   ar
    27     9    10   ar
    28    10     1   ar
    29     9     4   ar
    30    29    20    1
    31    29    23    1
    32    18    19    1
@<TRIPOS>MOLECULE
*****
 29 32 0 0 0
SMALL
GASTEIGER

@<TRIPOS>ATOM
      1 C         139.3768  139.7437  166.5506 C.ar    1  UNL1        0.1057
      2 C         139.2415  138.3556  165.9985 C.ar    1  UNL1        0.0199
      3 C         138.7740  138.1517  164.5879 C.ar    1  UNL1        0.0205
      4 C         138.4417  139.3359  163.7294 C.ar    1  UNL1        0.0847
      5 N         137.9741  139.1320  162.3188 N.ar    1  UNL1       -0.2436
      6 C         137.6418  140.3162  161.4602 C.ar    1  UNL1        0.1023
      7 C         137.7770  141.7044  162.0123 C.ar    1  UNL1        0.0608
      8 C         138.2446  141.9083  163.4229 C.ar    1  UNL1        0.1386
      9 C         138.5769  140.7240  164.2814 C.ar    1  UNL1        0.0558
     10 C         139.0445  140.9279  165.6921 C.ar    1  UNL1        0.0232
     11 S         139.8444  139.9476  167.9612 S.O2    1  UNL1        0.0054
     12 O         138.5642  139.3550  168.4712 O.2     1  UNL1       -0.1687
     13 O         141.1245  140.5402  167.4512 O.2     1  UNL1       -0.1687
     14 C         138.8966  140.3933  169.8060 C.3     1  UNL1        0.0240
     15 C         140.3119  140.1515  169.3718 C.3     1  UNL1        0.1151
     16 C         141.7272  139.9097  168.9376 C.3     1  UNL1        0.0240
     17 C         140.7795  140.3554  170.7824 C.3     1  UNL1        0.0240
     18 N         138.3798  143.2964  163.9749 N.pl3   1  UNL1       -0.1969
     19 H         137.7130  143.6396  164.6128 H       1  UNL1        0.2986
     20 C         139.5310  144.1617  163.5551 C.2     1  UNL1        0.3531
     21 N         139.4565  145.3403  162.6302 N.2     1  UNL1        0.0802
     22 N         140.8382  145.9073  162.4899 N.2     1  UNL1       -0.0381
     23 C         141.7664  145.0792  163.3282 C.2     1  UNL1        0.1170
     24 C         143.2429  145.1681  163.5771 C.3     1  UNL1        0.0783
     25 C         143.9115  144.1782  164.4842 C.2     1  UNL1        0.0100
     26 C         143.1036  143.0993  165.1426 C.2     1  UNL1        0.1366
     27 F         143.7722  142.1094  166.0497 F       1  UNL1       -0.2045
     28 C         141.6271  143.0104  164.8937 C.2     1  UNL1        0.0381
     29 C         140.9585  144.0004  163.9865 C.2     1  UNL1        0.1045
@<TRIPOS>BOND
     1    14    15    1
     2    15    16    1
     3    15    17    1
     4    15    11    1
     5    11    12    2
     6    11    13    2
     7    11     1    1
     8     1     2   ar
     9     2     3   ar
    10     3     4   ar
    11     4     5   ar
    12     5     6   ar
    13     6     7   ar
    14     7     8   ar
    15     8    18    1
    16    18    20    1
    17    20    21    2
    18    21    22    1
    19    22    23    2
    20    23    24    1
    21    24    25    1
    22    25    26    2
    23    26    27    1
    24    26    28    1
    25    28    29    2
    26     8     9   ar
    27     9    10   ar
    28    10     1   ar
    29     9     4   ar
    30    29    20    1
    31    29    23    1
    32    18    19    1
@<TRIPOS>MOLECULE
*****
 29 32 0 0 0
SMALL
GASTEIGER

@<TRIPOS>ATOM
      1 C         142.5417  140.0760  166.9220 C.ar    1  UNL1        0.1057
      2 C         143.2694  138.8580  166.4354 C.ar    1  UNL1        0.0199
      3 C         144.0779  138.9215  165.1735 C.ar    1  UNL1        0.0205
      4 C         144.1587  140.2031  164.3983 C.ar    1  UNL1        0.0847
      5 N         144.9671  140.2666  163.1364 N.ar    1  UNL1       -0.2436
      6 C         145.0479  141.5482  162.3611 C.ar    1  UNL1        0.1023
      7 C         144.3202  142.7663  162.8478 C.ar    1  UNL1        0.0608
      8 C         143.5117  142.7027  164.1097 C.ar    1  UNL1        0.1386
      9 C         143.4310  141.4211  164.8849 C.ar    1  UNL1        0.0558
     10 C         142.6225  141.3575  166.1468 C.ar    1  UNL1        0.0232
     11 S         141.7332  140.0124  168.1839 S.O2    1  UNL1        0.0054
     12 O         140.4718  140.1374  167.3820 O.2     1  UNL1       -0.1687
     13 O         142.9947  139.8874  168.9858 O.2     1  UNL1       -0.1687
     14 C         142.1548  139.5671  170.2146 C.3     1  UNL1        0.0240
     15 C         140.9248  139.9489  169.4457 C.3     1  UNL1        0.1151
     16 C         139.6947  140.3306  168.6769 C.3     1  UNL1        0.0240
     17 C         140.1163  139.8853  170.7076 C.3     1  UNL1        0.0240
     18 N         142.7840  143.9207  164.5963 N.pl3   1  UNL1       -0.1969
     19 H         143.1435  144.4399  165.3516 H       1  UNL1        0.2986
     20 C         141.5087  144.3478  163.9321 C.2     1  UNL1        0.3531
     21 N         141.3255  145.5659  163.0760 N.2     1  UNL1        0.0802
     22 N         139.8962  145.6027  162.6222 N.2     1  UNL1       -0.0381
     23 C         139.1961  144.4074  163.1978 C.2     1  UNL1        0.1170
     24 C         137.7800  143.9250  163.0893 C.3     1  UNL1        0.0783
     25 C         137.3604  142.6671  163.7904 C.2     1  UNL1        0.0100
     26 C         138.3570  141.8915  164.6000 C.2     1  UNL1        0.1366
     27 F         137.9374  140.6336  165.3010 F       1  UNL1       -0.2045
     28 C         139.7731  142.3739  164.7084 C.2     1  UNL1        0.0381
     29 C         140.1927  143.6319  164.0073 C.2     1  UNL1        0.1045
@<TRIPOS>BOND
     1    14    15    1
     2    15    16    1
     3    15    17    1
     4    15    11    1
     5    11    12    2
     6    11    13    2
     7    11     1    1
     8     1     2   ar
     9     2     3   ar
    10     3     4   ar
    11     4     5   ar
    12     5     6   ar
    13     6     7   ar
    14     7     8   ar
    15     8    18    1
    16    18    20    1
    17    20    21    2
    18    21    22    1
    19    22    23    2
    20    23    24    1
    21    24    25    1
    22    25    26    2
    23    26    27    1
    24    26    28    1
    25    28    29    2
    26     8     9   ar
    27     9    10   ar
    28    10     1   ar
    29     9     4   ar
    30    29    20    1
    31    29    23    1
    32    18    19    1
@<TRIPOS>MOLECULE
*****
 29 32 0 0 0
SMALL
GASTEIGER

@<TRIPOS>ATOM
      1 C         141.6413  139.4055  166.2732 C.ar    1  UNL1        0.1057
      2 C         142.3011  138.1793  165.7156 C.ar    1  UNL1        0.0199
      3 C         141.7561  137.5319  164.4771 C.ar    1  UNL1        0.0205
      4 C         140.5514  138.1107  163.7962 C.ar    1  UNL1        0.0847
      5 N         140.0065  137.4633  162.5577 N.ar    1  UNL1       -0.2436
      6 C         138.8018  138.0422  161.8769 C.ar    1  UNL1        0.1023
      7 C         138.1420  139.2685  162.4345 C.ar    1  UNL1        0.0608
      8 C         138.6870  139.9159  163.6730 C.ar    1  UNL1        0.1386
      9 C         139.8917  139.3370  164.3539 C.ar    1  UNL1        0.0558
     10 C         140.4367  139.9844  165.5924 C.ar    1  UNL1        0.0232
     11 S         142.1863  140.0529  167.5117 S.O2    1  UNL1        0.0054
     12 O         141.1822  141.1589  167.3754 O.2     1  UNL1       -0.1687
     13 O         143.1904  138.9469  167.6481 O.2     1  UNL1       -0.1687
     14 C         142.4821  139.4373  169.5201 C.3     1  UNL1        0.0240
     15 C         142.7312  140.7003  168.7502 C.3     1  UNL1        0.1151
     16 C         142.9804  141.9634  167.9804 C.3     1  UNL1        0.0240
     17 C         143.2762  141.3477  169.9888 C.3     1  UNL1        0.0240
     18 N         138.0272  141.1421  164.2306 N.pl3   1  UNL1       -0.1969
     19 H         137.4285  141.0683  165.0086 H       1  UNL1        0.2986
     20 C         138.2798  142.4809  163.6029 C.2     1  UNL1        0.3531
     21 N         137.3071  143.2614  162.7693 N.2     1  UNL1        0.0802
     22 N         137.9755  144.5371  162.3498 N.2     1  UNL1       -0.0381
     23 C         139.3612  144.5450  162.9242 C.2     1  UNL1        0.1170
     24 C         140.4761  145.5451  162.8420 C.3     1  UNL1        0.0783
     25 C         141.7789  145.2745  163.5343 C.2     1  UNL1        0.0100
     26 C         141.9670  144.0037  164.3088 C.2     1  UNL1        0.1366
     27 F         143.2698  143.7331  165.0010 F       1  UNL1       -0.2045
     28 C         140.8521  143.0036  164.3909 C.2     1  UNL1        0.0381
     29 C         139.5493  143.2742  163.6986 C.2     1  UNL1        0.1045
@<TRIPOS>BOND
     1    14    15    1
     2    15    16    1
     3    15    17    1
     4    15    11    1
     5    11    12    2
     6    11    13    2
     7    11     1    1
     8     1     2   ar
     9     2     3   ar
    10     3     4   ar
    11     4     5   ar
    12     5     6   ar
    13     6     7   ar
    14     7     8   ar
    15     8    18    1
    16    18    20    1
    17    20    21    2
    18    21    22    1
    19    22    23    2
    20    23    24    1
    21    24    25    1
    22    25    26    2
    23    26    27    1
    24    26    28    1
    25    28    29    2
    26     8     9   ar
    27     9    10   ar
    28    10     1   ar
    29     9     4   ar
    30    29    20    1
    31    29    23    1
    32    18    19    1
@<TRIPOS>MOLECULE
*****
 29 32 0 0 0
SMALL
GASTEIGER

@<TRIPOS>ATOM
      1 C         139.7876  140.5801  167.3299 C.ar    1  UNL1        0.1057
      2 C         138.7929  139.5005  167.0219 C.ar    1  UNL1        0.0199
      3 C         138.0898  139.4843  165.6970 C.ar    1  UNL1        0.0205
      4 C         138.3814  140.5477  164.6801 C.ar    1  UNL1        0.0847
      5 N         137.6782  140.5315  163.3552 N.ar    1  UNL1       -0.2436
      6 C         137.9698  141.5949  162.3383 C.ar    1  UNL1        0.1023
      7 C         138.9646  142.6746  162.6463 C.ar    1  UNL1        0.0608
      8 C         139.6677  142.6908  163.9712 C.ar    1  UNL1        0.1386
      9 C         139.3761  141.6273  164.9881 C.ar    1  UNL1        0.0558
     10 C         140.0792  141.6435  166.3130 C.ar    1  UNL1        0.0232
     11 S         140.4907  140.5964  168.6548 S.O2    1  UNL1        0.0054
     12 O         139.3241  139.8928  169.2825 O.2     1  UNL1       -0.1687
     13 O         141.6574  141.2999  168.0271 O.2     1  UNL1       -0.1687
     14 C         140.2692  141.6928  170.4572 C.3     1  UNL1        0.0240
     15 C         141.1939  140.6126  169.9797 C.3     1  UNL1        0.1151
     16 C         142.1186  139.5323  169.5022 C.3     1  UNL1        0.0240
     17 C         141.8970  140.6288  171.3046 C.3     1  UNL1        0.0240
     18 N         140.6625  143.7704  164.2792 N.pl3   1  UNL1       -0.1969
     19 H         140.4193  144.5046  164.8883 H       1  UNL1        0.2986
     20 C         142.0278  143.7313  163.6592 C.2     1  UNL1        0.3531
     21 N         142.6139  144.7717  162.7514 N.2     1  UNL1        0.0802
     22 N         143.9952  144.3284  162.3693 N.2     1  UNL1       -0.0381
     23 C         144.2626  143.0141  163.0410 C.2     1  UNL1        0.1170
     24 C         145.4561  142.1057  163.0297 C.3     1  UNL1        0.0783
     25 C         145.4338  140.8283  163.8156 C.2     1  UNL1        0.0100
     26 C         144.2179  140.4592  164.6129 C.2     1  UNL1        0.1366
     27 F         144.1956  139.1819  165.3987 F       1  UNL1       -0.2045
     28 C         143.0244  141.3677  164.6241 C.2     1  UNL1        0.0381
     29 C         143.0467  142.6451  163.8382 C.2     1  UNL1        0.1045
@<TRIPOS>BOND
     1    14    15    1
     2    15    16    1
     3    15    17    1
     4    15    11    1
     5    11    12    2
     6    11    13    2
     7    11     1    1
     8     1     2   ar
     9     2     3   ar
    10     3     4   ar
    11     4     5   ar
    12     5     6   ar
    13     6     7   ar
    14     7     8   ar
    15     8    18    1
    16    18    20    1
    17    20    21    2
    18    21    22    1
    19    22    23    2
    20    23    24    1
    21    24    25    1
    22    25    26    2
    23    26    27    1
    24    26    28    1
    25    28    29    2
    26     8     9   ar
    27     9    10   ar
    28    10     1   ar
    29     9     4   ar
    30    29    20    1
    31    29    23    1
    32    18    19    1
@<TRIPOS>MOLECULE
*****
 29 32 0 0 0
SMALL
GASTEIGER

@<TRIPOS>ATOM
      1 C         139.8514  139.9537  166.3729 C.ar    1  UNL1        0.1057
      2 C         140.7107  138.7441  166.1526 C.ar    1  UNL1        0.0199
      3 C         140.6302  137.9929  164.8567 C.ar    1  UNL1        0.0205
      4 C         139.6905  138.4513  163.7812 C.ar    1  UNL1        0.0847
      5 N         139.6100  137.7001  162.4853 N.ar    1  UNL1       -0.2436
      6 C         138.6703  138.1585  161.4098 C.ar    1  UNL1        0.1023
      7 C         137.8110  139.3681  161.6301 C.ar    1  UNL1        0.0608
      8 C         137.8915  140.1193  162.9260 C.ar    1  UNL1        0.1386
      9 C         138.8313  139.6609  164.0015 C.ar    1  UNL1        0.0558
     10 C         138.9117  140.4121  165.2974 C.ar    1  UNL1        0.0232
     11 S         139.9319  140.7049  167.6687 S.O2    1  UNL1        0.0054
     12 O         139.1153  139.6390  168.3373 O.2     1  UNL1       -0.1687
     13 O         140.7485  141.7708  167.0001 O.2     1  UNL1       -0.1687
     14 C         140.7881  142.5454  168.2850 C.3     1  UNL1        0.0240
     15 C         140.0124  141.4561  168.9646 C.3     1  UNL1        0.1151
     16 C         139.2367  140.3668  169.6442 C.3     1  UNL1        0.0240
     17 C         140.0929  142.2073  170.2604 C.3     1  UNL1        0.0240
     18 N         137.0323  141.3289  163.1463 N.pl3   1  UNL1       -0.1969
     19 H         136.0525  141.2376  163.1778 H       1  UNL1        0.2986
     20 C         137.6658  142.6777  163.3187 C.2     1  UNL1        0.3531
     21 N         137.5568  143.5544  164.5309 N.2     1  UNL1        0.0802
     22 N         138.3432  144.8051  164.2705 N.2     1  UNL1       -0.0381
     23 C         138.9382  144.7011  162.8975 C.2     1  UNL1        0.1170
     24 C         139.8071  145.6337  162.1069 C.3     1  UNL1        0.0783
     25 C         140.2573  145.2516  160.7281 C.2     1  UNL1        0.0100
     26 C         139.8387  143.9368  160.1398 C.2     1  UNL1        0.1366
     27 F         140.2890  143.5547  158.7610 F       1  UNL1       -0.2045
     28 C         138.9698  143.0041  160.9304 C.2     1  UNL1        0.0381
     29 C         138.5195  143.3863  162.3092 C.2     1  UNL1        0.1045
@<TRIPOS>BOND
     1    14    15    1
     2    15    16    1
     3    15    17    1
     4    15    11    1
     5    11    12    2
     6    11    13    2
     7    11     1    1
     8     1     2   ar
     9     2     3   ar
    10     3     4   ar
    11     4     5   ar
    12     5     6   ar
    13     6     7   ar
    14     7     8   ar
    15     8    18    1
    16    18    20    1
    17    20    21    2
    18    21    22    1
    19    22    23    2
    20    23    24    1
    21    24    25    1
    22    25    26    2
    23    26    27    1
    24    26    28    1
    25    28    29    2
    26     8     9   ar
    27     9    10   ar
    28    10     1   ar
    29     9     4   ar
    30    29    20    1
    31    29    23    1
    32    18    19    1
@<TRIPOS>MOLECULE
*****
 29 32 0 0 0
SMALL
GASTEIGER

@<TRIPOS>ATOM
      1 C         142.8318  142.3883  166.0134 C.ar    1  UNL1        0.1057
      2 C         144.0754  143.1253  165.6130 C.ar    1  UNL1        0.0199
      3 C         144.1296  143.8462  164.2988 C.ar    1  UNL1        0.0205
      4 C         142.9403  143.8302  163.3849 C.ar    1  UNL1        0.0847
      5 N         142.9946  144.5512  162.0706 N.ar    1  UNL1       -0.2436
      6 C         141.8052  144.5352  161.1568 C.ar    1  UNL1        0.1023
      7 C         140.5616  143.7982  161.5571 C.ar    1  UNL1        0.0608
      8 C         140.5073  143.0772  162.8714 C.ar    1  UNL1        0.1386
      9 C         141.6967  143.0933  163.7853 C.ar    1  UNL1        0.0558
     10 C         141.6425  142.3723  165.0996 C.ar    1  UNL1        0.0232
     11 S         142.7775  141.6674  167.3277 S.O2    1  UNL1        0.0054
     12 O         143.6337  142.7320  167.9470 O.2     1  UNL1       -0.1687
     13 O         141.9213  140.6028  166.7084 O.2     1  UNL1       -0.1687
     14 C         143.3318  142.1377  169.3206 C.3     1  UNL1        0.0240
     15 C         142.7233  140.9464  168.6420 C.3     1  UNL1        0.1151
     16 C         142.1148  139.7551  167.9634 C.3     1  UNL1        0.0240
     17 C         142.6690  140.2255  169.9562 C.3     1  UNL1        0.0240
     18 N         139.2637  142.3403  163.2718 N.pl3   1  UNL1       -0.1969
     19 H         138.4837  142.8376  163.6086 H       1  UNL1        0.2986
     20 C         139.2086  140.8455  163.1590 C.2     1  UNL1        0.3531
     21 N         139.4666  140.0450  161.9170 N.2     1  UNL1        0.0802
     22 N         139.3032  138.5935  162.2588 N.2     1  UNL1       -0.0381
     23 C         138.9442  138.4971  163.7121 C.2     1  UNL1        0.1170
     24 C         138.6631  137.3218  164.6007 C.3     1  UNL1        0.0783
     25 C         138.3234  137.5383  166.0455 C.2     1  UNL1        0.0100
     26 C         138.2649  138.9301  166.6019 C.2     1  UNL1        0.1366
     27 F         137.9253  139.1466  168.0467 F       1  UNL1       -0.2045
     28 C         138.5461  140.1054  165.7133 C.2     1  UNL1        0.0381
     29 C         138.8858  139.8889  164.2684 C.2     1  UNL1        0.1045
@<TRIPOS>BOND
     1    14    15    1
     2    15    16    1
     3    15    17    1
     4    15    11    1
     5    11    12    2
     6    11    13    2
     7    11     1    1
     8     1     2   ar
     9     2     3   ar
    10     3     4   ar
    11     4     5   ar
    12     5     6   ar
    13     6     7   ar
    14     7     8   ar
    15     8    18    1
    16    18    20    1
    17    20    21    2
    18    21    22    1
    19    22    23    2
    20    23    24    1
    21    24    25    1
    22    25    26    2
    23    26    27    1
    24    26    28    1
    25    28    29    2
    26     8     9   ar
    27     9    10   ar
    28    10     1   ar
    29     9     4   ar
    30    29    20    1
    31    29    23    1
    32    18    19    1
@<TRIPOS>MOLECULE
*****
 29 32 0 0 0
SMALL
GASTEIGER

@<TRIPOS>ATOM
      1 C         138.6971  141.3758  163.9422 C.ar    1  UNL1        0.1057
      2 C         137.7390  142.4477  164.3699 C.ar    1  UNL1        0.0199
      3 C         137.8290  143.8182  163.7669 C.ar    1  UNL1        0.0205
      4 C         138.8771  144.1168  162.7363 C.ar    1  UNL1        0.0847
      5 N         138.9671  145.4873  162.1333 N.ar    1  UNL1       -0.2436
      6 C         140.0153  145.7859  161.1027 C.ar    1  UNL1        0.1023
      7 C         140.9734  144.7140  160.6750 C.ar    1  UNL1        0.0608
      8 C         140.8834  143.3434  161.2780 C.ar    1  UNL1        0.1386
      9 C         139.8352  143.0449  162.3086 C.ar    1  UNL1        0.0558
     10 C         139.7452  141.6744  162.9116 C.ar    1  UNL1        0.0232
     11 S         138.6071  140.0052  164.5452 S.O2    1  UNL1        0.0054
     12 O         138.9870  140.5686  165.8825 O.2     1  UNL1       -0.1687
     13 O         138.2272  139.4419  163.2079 O.2     1  UNL1       -0.1687
     14 C         138.1115  139.2385  166.4600 C.3     1  UNL1        0.0240
     15 C         138.5171  138.6347  165.1482 C.3     1  UNL1        0.1151
     16 C         138.9227  138.0309  163.8363 C.3     1  UNL1        0.0240
     17 C         138.4271  137.2642  165.7511 C.3     1  UNL1        0.0240
     18 N         141.8416  142.2715  160.8503 N.pl3   1  UNL1       -0.1969
     19 H         141.6330  141.7072  160.0710 H       1  UNL1        0.2986
     20 C         143.1174  142.0593  161.6101 C.2     1  UNL1        0.3531
     21 N         144.3659  142.8811  161.4835 N.2     1  UNL1        0.0802
     22 N         145.3890  142.3177  162.4250 N.2     1  UNL1       -0.0381
     23 C         144.7726  141.1479  163.1333 C.2     1  UNL1        0.1170
     24 C         145.3084  140.2074  164.1717 C.3     1  UNL1        0.0783
     25 C         144.4403  139.1073  164.7065 C.2     1  UNL1        0.0100
     26 C         143.0364  138.9475  164.2029 C.2     1  UNL1        0.1366
     27 F         142.1684  137.8474  164.7377 F       1  UNL1       -0.2045
     28 C         142.5007  139.8880  163.1644 C.2     1  UNL1        0.0381
     29 C         143.3688  140.9882  162.6296 C.2     1  UNL1        0.1045
@<TRIPOS>BOND
     1    14    15    1
     2    15    16    1
     3    15    17    1
     4    15    11    1
     5    11    12    2
     6    11    13    2
     7    11     1    1
     8     1     2   ar
     9     2     3   ar
    10     3     4   ar
    11     4     5   ar
    12     5     6   ar
    13     6     7   ar
    14     7     8   ar
    15     8    18    1
    16    18    20    1
    17    20    21    2
    18    21    22    1
    19    22    23    2
    20    23    24    1
    21    24    25    1
    22    25    26    2
    23    26    27    1
    24    26    28    1
    25    28    29    2
    26     8     9   ar
    27     9    10   ar
    28    10     1   ar
    29     9     4   ar
    30    29    20    1
    31    29    23    1
    32    18    19    1
@<TRIPOS>MOLECULE
*****
 29 32 0 0 0
SMALL
GASTEIGER

@<TRIPOS>ATOM
      1 C         141.9525  139.8029  167.2061 C.ar    1  UNL1        0.1057
      2 C         143.0354  138.8235  166.8623 C.ar    1  UNL1        0.0199
      3 C         143.0055  138.1036  165.5467 C.ar    1  UNL1        0.0205
      4 C         141.8927  138.3631  164.5749 C.ar    1  UNL1        0.0847
      5 N         141.8629  137.6432  163.2593 N.ar    1  UNL1       -0.2436
      6 C         140.7501  137.9027  162.2875 C.ar    1  UNL1        0.1023
      7 C         139.6672  138.8821  162.6312 C.ar    1  UNL1        0.0608
      8 C         139.6971  139.6020  163.9469 C.ar    1  UNL1        0.1386
      9 C         140.8099  139.3425  164.9187 C.ar    1  UNL1        0.0558
     10 C         140.8398  140.0624  166.2343 C.ar    1  UNL1        0.0232
     11 S         141.9824  140.5228  168.5217 S.O2    1  UNL1        0.0054
     12 O         142.9328  139.4958  169.0621 O.2     1  UNL1       -0.1687
     13 O         141.0321  141.5498  167.9813 O.2     1  UNL1       -0.1687
     14 C         143.0184  142.2090  169.2858 C.3     1  UNL1        0.0240
     15 C         142.0123  141.2427  169.8373 C.3     1  UNL1        0.1151
     16 C         141.0063  140.2765  170.3889 C.3     1  UNL1        0.0240
     17 C         142.0422  141.9626  171.1530 C.3     1  UNL1        0.0240
     18 N         138.6143  140.5814  164.2907 N.pl3   1  UNL1       -0.1969
     19 H         137.9471  140.3561  164.9787 H       1  UNL1        0.2986
     20 C         138.5479  141.9040  163.5862 C.2     1  UNL1        0.3531
     21 N         137.3997  142.4078  162.7630 N.2     1  UNL1        0.0802
     22 N         137.7603  143.7703  162.2493 N.2     1  UNL1       -0.0381
     23 C         139.1314  144.1084  162.7551 C.2     1  UNL1        0.1170
     24 C         139.9995  145.3176  162.5701 C.3     1  UNL1        0.0783
     25 C         141.3543  145.3734  163.2113 C.2     1  UNL1        0.0100
     26 C         141.8412  144.2200  164.0376 C.2     1  UNL1        0.1366
     27 F         143.1960  144.2757  164.6787 F       1  UNL1       -0.2045
     28 C         140.9730  143.0108  164.2226 C.2     1  UNL1        0.0381
     29 C         139.6181  142.9550  163.5814 C.2     1  UNL1        0.1045
@<TRIPOS>BOND
     1    14    15    1
     2    15    16    1
     3    15    17    1
     4    15    11    1
     5    11    12    2
     6    11    13    2
     7    11     1    1
     8     1     2   ar
     9     2     3   ar
    10     3     4   ar
    11     4     5   ar
    12     5     6   ar
    13     6     7   ar
    14     7     8   ar
    15     8    18    1
    16    18    20    1
    17    20    21    2
    18    21    22    1
    19    22    23    2
    20    23    24    1
    21    24    25    1
    22    25    26    2
    23    26    27    1
    24    26    28    1
    25    28    29    2
    26     8     9   ar
    27     9    10   ar
    28    10     1   ar
    29     9     4   ar
    30    29    20    1
    31    29    23    1
    32    18    19    1
