@<TRIPOS>MOLECULE
*****
 37 41 0 0 0
SMALL
GASTEIGER

@<TRIPOS>ATOM
      1 C         142.0447  140.5164  165.7279 C.ar    1  UNL1        0.0564
      2 C         142.7413  140.7485  164.4199 C.ar    1  UNL1        0.0237
      3 C         142.0263  140.4733  163.1302 C.ar    1  UNL1        0.0814
      4 N         140.6148  139.9661  163.1486 N.ar    1  UNL1       -0.2454
      5 C         139.9182  139.7340  164.4567 C.ar    1  UNL1        0.0815
      6 C         138.5067  139.2268  164.4751 C.ar    1  UNL1        0.0214
      7 C         137.8102  138.9948  165.7831 C.ar    1  UNL1        0.0312
      8 C         138.5252  139.2699  167.0727 C.ar    1  UNL1        0.1402
      9 F         137.8285  139.0379  168.3808 F       1  UNL1       -0.2042
     10 C         139.9366  139.7772  167.0543 C.ar    1  UNL1        0.0313
     11 C         140.6332  140.0092  165.7463 C.ar    1  UNL1        0.0243
     12 C         142.7229  140.7053  161.8222 C.ar    1  UNL1        0.0177
     13 C         143.0240  139.5477  160.9171 C.ar    1  UNL1        0.0029
     14 C         143.7206  139.7798  159.6091 C.ar    1  UNL1        0.0200
     15 C         144.1161  141.1695  159.2062 C.ar    1  UNL1        0.1222
     16 C         143.8150  142.3271  160.1113 C.ar    1  UNL1        0.0200
     17 C         143.1184  142.0950  161.4193 C.ar    1  UNL1        0.0029
     18 S         144.8127  141.4016  157.8981 S.O2    1  UNL1        0.0634
     19 O         144.9834  142.8506  158.2461 O.2     1  UNL1       -0.1528
     20 O         144.6419  139.9526  157.5502 O.2     1  UNL1       -0.1528
     21 N         145.5092  141.6336  156.5901 N.3     1  UNL1       -0.1504
     22 C         146.8159  142.3695  156.5565 C.3     1  UNL1        0.1279
     23 C         147.5125  142.6015  155.2484 C.3     1  UNL1        0.1613
     24 O         146.9024  142.0976  153.9741 O.3     1  UNL1       -0.3507
     25 C         145.5957  141.3618  154.0078 C.3     1  UNL1        0.1613
     26 C         144.8992  141.1298  155.3158 C.3     1  UNL1        0.1279
     27 O         143.2770  139.6531  167.8460 O.2     1  UNL1       -0.2701
     28 C         142.7597  140.7916  167.0175 C.2     1  UNL1        0.2460
     29 N         142.9574  142.2052  167.4786 N.am    1  UNL1       -0.2994
     30 H         142.6179  142.9524  166.9349 H       1  UNL1        0.1498
     31 C         143.6724  142.4803  168.7682 C.3     1  UNL1        0.1070
     32 C         142.8926  142.6301  170.0409 C.3     1  UNL1        0.0936
     33 N         141.5989  141.8921  170.2191 N.3     1  UNL1       -0.2712
     34 C         140.2282  142.4372  169.9469 C.3     1  UNL1        0.0722
     35 C         139.2309  141.3614  170.2604 C.3     1  UNL1        0.0188
     36 C         139.9853  140.1515  170.7263 C.3     1  UNL1        0.0188
     37 C         141.4488  140.4794  170.7008 C.3     1  UNL1        0.0722
@<TRIPOS>BOND
     1    27    28    2
     2    28    29   am
     3    29    31    1
     4    31    32    1
     5    32    33    1
     6    33    34    1
     7    34    35    1
     8    35    36    1
     9    36    37    1
    10    28     1    1
    11     1     2   ar
    12     2     3   ar
    13     3    12    1
    14    12    13   ar
    15    13    14   ar
    16    14    15   ar
    17    15    18    1
    18    18    19    2
    19    18    20    2
    20    18    21    1
    21    21    22    1
    22    22    23    1
    23    23    24    1
    24    24    25    1
    25    25    26    1
    26    15    16   ar
    27    16    17   ar
    28     3     4   ar
    29     4     5   ar
    30     5     6   ar
    31     6     7   ar
    32     7     8   ar
    33     8     9    1
    34     8    10   ar
    35    10    11   ar
    36    37    33    1
    37    11     1   ar
    38    17    12   ar
    39    11     5   ar
    40    26    21    1
    41    29    30    1
@<TRIPOS>MOLECULE
*****
 37 41 0 0 0
SMALL
GASTEIGER

@<TRIPOS>ATOM
      1 C         141.1545  141.3037  163.9629 C.ar    1  UNL1        0.0564
      2 C         141.4014  140.4086  162.7849 C.ar    1  UNL1        0.0237
      3 C         140.5550  140.5391  161.5533 C.ar    1  UNL1        0.0814
      4 N         139.4617  141.5646  161.4999 N.ar    1  UNL1       -0.2454
      5 C         139.2147  142.4598  162.6779 C.ar    1  UNL1        0.0815
      6 C         138.1214  143.4853  162.6244 C.ar    1  UNL1        0.0214
      7 C         137.8745  144.3804  163.8024 C.ar    1  UNL1        0.0312
      8 C         138.7209  144.2500  165.0339 C.ar    1  UNL1        0.1402
      9 F         138.4740  145.1452  166.2120 F       1  UNL1       -0.2042
     10 C         139.8142  143.2244  165.0874 C.ar    1  UNL1        0.0313
     11 C         140.0611  142.3293  163.9094 C.ar    1  UNL1        0.0243
     12 C         140.8020  139.6439  160.3753 C.ar    1  UNL1        0.0177
     13 C         142.1262  138.9567  160.2201 C.ar    1  UNL1        0.0029
     14 C         142.3732  138.0616  159.0421 C.ar    1  UNL1        0.0200
     15 C         141.2958  137.8536  158.0193 C.ar    1  UNL1        0.1222
     16 C         139.9716  138.5408  158.1745 C.ar    1  UNL1        0.0200
     17 C         139.7246  139.4359  159.3525 C.ar    1  UNL1        0.0029
     18 S         141.5428  136.9585  156.8412 S.O2    1  UNL1        0.0634
     19 O         142.9758  136.8062  157.2573 O.2     1  UNL1       -0.1528
     20 O         140.1097  137.1107  156.4252 O.2     1  UNL1       -0.1528
     21 N         141.7897  136.0633  155.6632 N.3     1  UNL1       -0.1504
     22 C         141.5984  136.5866  154.2706 C.3     1  UNL1        0.1279
     23 C         141.8453  135.6915  153.0925 C.3     1  UNL1        0.1613
     24 O         142.2835  134.2731  153.3071 O.3     1  UNL1       -0.3507
     25 C         142.4747  133.7498  154.6999 C.3     1  UNL1        0.1613
     26 C         142.2278  134.6449  155.8779 C.3     1  UNL1        0.1279
     27 O         143.2110  142.0425  165.3682 O.2     1  UNL1       -0.2701
     28 C         142.0009  141.1733  165.1944 C.2     1  UNL1        0.2460
     29 N         141.6372  140.1738  166.2520 N.am    1  UNL1       -0.2994
     30 H         140.8430  139.6033  166.1379 H       1  UNL1        0.1498
     31 C         142.4836  140.0433  167.4835 C.3     1  UNL1        0.1070
     32 C         141.8430  140.0658  168.8397 C.3     1  UNL1        0.0936
     33 N         141.1737  141.3145  169.3324 N.3     1  UNL1       -0.2712
     34 C         140.4457  141.4696  170.6347 C.3     1  UNL1        0.0722
     35 C         139.9370  142.8783  170.7165 C.3     1  UNL1        0.0188
     36 C         140.3505  143.5939  169.4647 C.3     1  UNL1        0.0188
     37 C         141.1149  142.6274  168.6092 C.3     1  UNL1        0.0722
@<TRIPOS>BOND
     1    27    28    2
     2    28    29   am
     3    29    31    1
     4    31    32    1
     5    32    33    1
     6    33    34    1
     7    34    35    1
     8    35    36    1
     9    36    37    1
    10    28     1    1
    11     1     2   ar
    12     2     3   ar
    13     3    12    1
    14    12    13   ar
    15    13    14   ar
    16    14    15   ar
    17    15    18    1
    18    18    19    2
    19    18    20    2
    20    18    21    1
    21    21    22    1
    22    22    23    1
    23    23    24    1
    24    24    25    1
    25    25    26    1
    26    15    16   ar
    27    16    17   ar
    28     3     4   ar
    29     4     5   ar
    30     5     6   ar
    31     6     7   ar
    32     7     8   ar
    33     8     9    1
    34     8    10   ar
    35    10    11   ar
    36    37    33    1
    37    11     1   ar
    38    17    12   ar
    39    11     5   ar
    40    26    21    1
    41    29    30    1
@<TRIPOS>MOLECULE
*****
 37 41 0 0 0
SMALL
GASTEIGER

@<TRIPOS>ATOM
      1 C         143.2683  143.0022  158.9885 C.ar    1  UNL1        0.0564
      2 C         143.1825  142.6834  160.4517 C.ar    1  UNL1        0.0237
      3 C         142.1800  143.3895  161.3156 C.ar    1  UNL1        0.0814
      4 N         141.2632  144.4143  160.7164 N.ar    1  UNL1       -0.2454
      5 C         141.3489  144.7331  159.2531 C.ar    1  UNL1        0.0815
      6 C         140.4321  145.7579  158.6538 C.ar    1  UNL1        0.0214
      7 C         140.5178  146.0767  157.1906 C.ar    1  UNL1        0.0312
      8 C         141.5204  145.3706  156.3267 C.ar    1  UNL1        0.1402
      9 F         141.6061  145.6894  154.8634 F       1  UNL1       -0.2042
     10 C         142.4372  144.3458  156.9260 C.ar    1  UNL1        0.0313
     11 C         142.3514  144.0270  158.3892 C.ar    1  UNL1        0.0243
     12 C         142.0943  143.0706  162.7789 C.ar    1  UNL1        0.0177
     13 C         143.3330  142.7007  163.5397 C.ar    1  UNL1        0.0029
     14 C         143.2472  142.3820  165.0029 C.ar    1  UNL1        0.0200
     15 C         141.9228  142.4331  165.7053 C.ar    1  UNL1        0.1222
     16 C         140.6842  142.8030  164.9445 C.ar    1  UNL1        0.0200
     17 C         140.7699  143.1218  163.4813 C.ar    1  UNL1        0.0029
     18 S         141.8371  142.1143  167.1686 S.O2    1  UNL1        0.0634
     19 O         143.3042  142.3901  167.3146 O.2     1  UNL1       -0.1528
     20 O         140.3700  141.8384  167.0225 O.2     1  UNL1       -0.1528
     21 N         141.7514  141.7954  168.6317 N.3     1  UNL1       -0.1504
     22 C         142.6685  140.7710  169.2311 C.3     1  UNL1        0.1279
     23 C         142.5828  140.4521  170.6943 C.3     1  UNL1        0.1613
     24 O         141.5799  141.1578  171.5582 O.3     1  UNL1       -0.3507
     25 C         140.6627  142.1823  170.9588 C.3     1  UNL1        0.1613
     26 C         140.7485  142.5011  169.4956 C.3     1  UNL1        0.1279
     27 O         143.9738  140.9224  157.6003 O.2     1  UNL1       -0.2701
     28 C         144.2708  142.2961  158.1246 C.2     1  UNL1        0.2460
     29 N         145.5704  142.9637  157.7848 N.am    1  UNL1       -0.2994
     30 H         145.7653  143.8653  158.1289 H       1  UNL1        0.1498
     31 C         146.5729  142.2577  156.9209 C.3     1  UNL1        0.1070
     32 C         146.8806  142.7800  155.5488 C.3     1  UNL1        0.0936
     33 N         148.2086  142.4881  154.9155 N.3     1  UNL1       -0.2712
     34 C         148.6492  142.9248  153.5498 C.3     1  UNL1        0.0722
     35 C         150.0421  142.4147  153.3269 C.3     1  UNL1        0.0188
     36 C         150.4624  141.6627  154.5549 C.3     1  UNL1        0.0188
     37 C         149.3292  141.7080  155.5367 C.3     1  UNL1        0.0722
@<TRIPOS>BOND
     1    27    28    2
     2    28    29   am
     3    29    31    1
     4    31    32    1
     5    32    33    1
     6    33    34    1
     7    34    35    1
     8    35    36    1
     9    36    37    1
    10    28     1    1
    11     1     2   ar
    12     2     3   ar
    13     3    12    1
    14    12    13   ar
    15    13    14   ar
    16    14    15   ar
    17    15    18    1
    18    18    19    2
    19    18    20    2
    20    18    21    1
    21    21    22    1
    22    22    23    1
    23    23    24    1
    24    24    25    1
    25    25    26    1
    26    15    16   ar
    27    16    17   ar
    28     3     4   ar
    29     4     5   ar
    30     5     6   ar
    31     6     7   ar
    32     7     8   ar
    33     8     9    1
    34     8    10   ar
    35    10    11   ar
    36    37    33    1
    37    11     1   ar
    38    17    12   ar
    39    11     5   ar
    40    26    21    1
    41    29    30    1
@<TRIPOS>MOLECULE
*****
 37 41 0 0 0
SMALL
GASTEIGER

@<TRIPOS>ATOM
      1 C         143.4295  142.9424  158.9850 C.ar    1  UNL1        0.0564
      2 C         143.3099  142.6448  160.4503 C.ar    1  UNL1        0.0237
      3 C         142.2845  143.3595  161.2795 C.ar    1  UNL1        0.0814
      4 N         141.3787  144.3719  160.6435 N.ar    1  UNL1       -0.2454
      5 C         141.4983  144.6696  159.1782 C.ar    1  UNL1        0.0815
      6 C         140.5925  145.6820  158.5421 C.ar    1  UNL1        0.0214
      7 C         140.7121  145.9796  157.0769 C.ar    1  UNL1        0.0312
      8 C         141.7375  145.2649  156.2476 C.ar    1  UNL1        0.1402
      9 F         141.8571  145.5626  154.7823 F       1  UNL1       -0.2042
     10 C         142.6433  144.2525  156.8836 C.ar    1  UNL1        0.0313
     11 C         142.5237  143.9549  158.3489 C.ar    1  UNL1        0.0243
     12 C         142.1649  143.0618  162.7449 C.ar    1  UNL1        0.0177
     13 C         140.9776  143.5569  163.5163 C.ar    1  UNL1        0.0029
     14 C         140.8580  143.2592  164.9815 C.ar    1  UNL1        0.0200
     15 C         141.9258  142.4664  165.6754 C.ar    1  UNL1        0.1222
     16 C         143.1131  141.9713  164.9039 C.ar    1  UNL1        0.0200
     17 C         143.2326  142.2690  163.4387 C.ar    1  UNL1        0.0029
     18 S         141.8062  142.1687  167.1407 S.O2    1  UNL1        0.0634
     19 O         143.2826  142.3776  167.3037 O.2     1  UNL1       -0.1528
     20 O         140.3298  141.9598  166.9777 O.2     1  UNL1       -0.1528
     21 N         141.6865  141.8710  168.6060 N.3     1  UNL1       -0.1504
     22 C         140.6460  142.5690  169.4305 C.3     1  UNL1        0.1279
     23 C         140.5263  142.2713  170.8959 C.3     1  UNL1        0.1613
     24 O         141.4472  141.2756  171.5366 O.3     1  UNL1       -0.3507
     25 C         142.4878  140.5776  170.7119 C.3     1  UNL1        0.1613
     26 C         142.6075  140.8753  169.2466 C.3     1  UNL1        0.1279
     27 O         144.2650  140.7800  157.8121 O.2     1  UNL1       -0.2701
     28 C         144.4550  142.2277  158.1557 C.2     1  UNL1        0.2460
     29 N         145.6703  142.9607  157.6702 N.am    1  UNL1       -0.2994
     30 H         145.7949  143.9108  157.8957 H       1  UNL1        0.1498
     31 C         146.6957  142.2459  156.8409 C.3     1  UNL1        0.1070
     32 C         146.4587  142.0326  155.3752 C.3     1  UNL1        0.0936
     33 N         146.2739  143.2112  154.4660 N.3     1  UNL1       -0.2712
     34 C         144.9643  143.7316  153.9521 C.3     1  UNL1        0.0722
     35 C         145.2473  144.9185  153.0796 C.3     1  UNL1        0.0188
     36 C         146.7319  145.1316  153.0541 C.3     1  UNL1        0.0188
     37 C         147.3664  144.0765  153.9109 C.3     1  UNL1        0.0722
@<TRIPOS>BOND
     1    27    28    2
     2    28    29   am
     3    29    31    1
     4    31    32    1
     5    32    33    1
     6    33    34    1
     7    34    35    1
     8    35    36    1
     9    36    37    1
    10    28     1    1
    11     1     2   ar
    12     2     3   ar
    13     3    12    1
    14    12    13   ar
    15    13    14   ar
    16    14    15   ar
    17    15    18    1
    18    18    19    2
    19    18    20    2
    20    18    21    1
    21    21    22    1
    22    22    23    1
    23    23    24    1
    24    24    25    1
    25    25    26    1
    26    15    16   ar
    27    16    17   ar
    28     3     4   ar
    29     4     5   ar
    30     5     6   ar
    31     6     7   ar
    32     7     8   ar
    33     8     9    1
    34     8    10   ar
    35    10    11   ar
    36    37    33    1
    37    11     1   ar
    38    17    12   ar
    39    11     5   ar
    40    26    21    1
    41    29    30    1
@<TRIPOS>MOLECULE
*****
 37 41 0 0 0
SMALL
GASTEIGER

@<TRIPOS>ATOM
      1 C         138.6042  142.2020  158.4545 C.ar    1  UNL1        0.0564
      2 C         138.7291  141.9364  159.9254 C.ar    1  UNL1        0.0237
      3 C         139.4913  142.8894  160.7976 C.ar    1  UNL1        0.0814
      4 N         140.1286  144.1081  160.1989 N.ar    1  UNL1       -0.2454
      5 C         140.0037  144.3738  158.7279 C.ar    1  UNL1        0.0815
      6 C         140.6410  145.5926  158.1291 C.ar    1  UNL1        0.0214
      7 C         140.5160  145.8582  156.6582 C.ar    1  UNL1        0.0312
      8 C         139.7538  144.9052  155.7860 C.ar    1  UNL1        0.1402
      9 F         139.6289  145.1710  154.3149 F       1  UNL1       -0.2042
     10 C         139.1165  143.6865  156.3847 C.ar    1  UNL1        0.0313
     11 C         139.2415  143.4208  157.8557 C.ar    1  UNL1        0.0243
     12 C         139.6162  142.6236  162.2687 C.ar    1  UNL1        0.0177
     13 C         138.5325  143.0679  163.2057 C.ar    1  UNL1        0.0029
     14 C         138.6575  142.8021  164.6767 C.ar    1  UNL1        0.0200
     15 C         139.8662  142.0921  165.2106 C.ar    1  UNL1        0.1222
     16 C         140.9499  141.6479  164.2735 C.ar    1  UNL1        0.0200
     17 C         140.8249  141.9136  162.8025 C.ar    1  UNL1        0.0029
     18 S         139.9911  141.8264  166.6816 S.O2    1  UNL1        0.0634
     19 O         139.2479  140.5347  166.5114 O.2     1  UNL1       -0.1528
     20 O         140.7343  143.1181  166.8518 O.2     1  UNL1       -0.1528
     21 N         140.1160  141.5607  168.1525 N.3     1  UNL1       -0.1504
     22 C         139.9578  140.1650  168.6786 C.3     1  UNL1        0.1279
     23 C         140.0827  139.8992  170.1497 C.3     1  UNL1        0.1613
     24 O         140.3659  141.0293  171.0945 O.3     1  UNL1       -0.3507
     25 C         140.5242  142.4251  170.5684 C.3     1  UNL1        0.1613
     26 C         140.3992  142.6908  169.0974 C.3     1  UNL1        0.1279
     27 O         138.3452  139.8503  157.3809 O.2     1  UNL1       -0.2701
     28 C         137.8419  141.2490  157.5823 C.2     1  UNL1        0.2460
     29 N         136.5765  141.6946  156.9115 N.am    1  UNL1       -0.2994
     30 H         136.2462  142.6126  157.0436 H       1  UNL1        0.1498
     31 C         135.8142  140.7416  156.0393 C.3     1  UNL1        0.1070
     32 C         134.4470  141.1086  155.5432 C.3     1  UNL1        0.0936
     33 N         133.2476  140.3394  156.0119 N.3     1  UNL1       -0.2712
     34 C         133.2467  138.9239  156.5083 C.3     1  UNL1        0.0722
     35 C         131.8371  138.5602  156.8697 C.3     1  UNL1        0.0188
     36 C         130.9667  139.7509  156.5967 C.3     1  UNL1        0.0188
     37 C         131.8384  140.8506  156.0665 C.3     1  UNL1        0.0722
@<TRIPOS>BOND
     1    27    28    2
     2    28    29   am
     3    29    31    1
     4    31    32    1
     5    32    33    1
     6    33    34    1
     7    34    35    1
     8    35    36    1
     9    36    37    1
    10    28     1    1
    11     1     2   ar
    12     2     3   ar
    13     3    12    1
    14    12    13   ar
    15    13    14   ar
    16    14    15   ar
    17    15    18    1
    18    18    19    2
    19    18    20    2
    20    18    21    1
    21    21    22    1
    22    22    23    1
    23    23    24    1
    24    24    25    1
    25    25    26    1
    26    15    16   ar
    27    16    17   ar
    28     3     4   ar
    29     4     5   ar
    30     5     6   ar
    31     6     7   ar
    32     7     8   ar
    33     8     9    1
    34     8    10   ar
    35    10    11   ar
    36    37    33    1
    37    11     1   ar
    38    17    12   ar
    39    11     5   ar
    40    26    21    1
    41    29    30    1
@<TRIPOS>MOLECULE
*****
 37 41 0 0 0
SMALL
GASTEIGER

@<TRIPOS>ATOM
      1 C         143.1678  139.0312  157.8111 C.ar    1  UNL1        0.0564
      2 C         142.8076  138.9949  159.2667 C.ar    1  UNL1        0.0237
      3 C         143.2770  140.0858  160.1829 C.ar    1  UNL1        0.0814
      4 N         144.1066  141.2131  159.6436 N.ar    1  UNL1       -0.2454
      5 C         144.4668  141.2495  158.1879 C.ar    1  UNL1        0.0815
      6 C         145.2964  142.3767  157.6485 C.ar    1  UNL1        0.0214
      7 C         145.6566  142.4131  156.1929 C.ar    1  UNL1        0.0312
      8 C         145.1873  141.3221  155.2766 C.ar    1  UNL1        0.1402
      9 F         145.5475  141.3585  153.8209 F       1  UNL1       -0.2042
     10 C         144.3577  140.1948  155.8160 C.ar    1  UNL1        0.0313
     11 C         143.9974  140.1585  157.2716 C.ar    1  UNL1        0.0243
     12 C         142.9167  140.0494  161.6386 C.ar    1  UNL1        0.0177
     13 C         141.4820  140.1701  162.0594 C.ar    1  UNL1        0.0029
     14 C         141.1218  140.1338  163.5151 C.ar    1  UNL1        0.0200
     15 C         142.1963  139.9767  164.5499 C.ar    1  UNL1        0.1222
     16 C         143.6310  139.8560  164.1291 C.ar    1  UNL1        0.0200
     17 C         143.9911  139.8924  162.6734 C.ar    1  UNL1        0.0029
     18 S         141.8360  139.9403  166.0056 S.O2    1  UNL1        0.0634
     19 O         142.7607  138.7763  166.2054 O.2     1  UNL1       -0.1528
     20 O         140.9113  141.1043  165.8057 O.2     1  UNL1       -0.1528
     21 N         141.4757  139.9040  167.4612 N.3     1  UNL1       -0.1504
     22 C         140.1063  140.3248  167.9055 C.3     1  UNL1        0.1279
     23 C         139.7460  140.2885  169.3612 C.3     1  UNL1        0.1613
     24 O         140.7551  139.8313  170.3724 O.3     1  UNL1       -0.3507
     25 C         142.1246  139.4105  169.9280 C.3     1  UNL1        0.1613
     26 C         142.4849  139.4469  168.4724 C.3     1  UNL1        0.1279
     27 O         141.2683  137.9032  156.4437 O.2     1  UNL1       -0.2701
     28 C         142.6984  137.9402  156.8948 C.2     1  UNL1        0.2460
     29 N         143.6591  136.8863  156.4297 N.am    1  UNL1       -0.2994
     30 H         144.5977  136.9106  156.7258 H       1  UNL1        0.1498
     31 C         143.1897  135.7954  155.5134 C.3     1  UNL1        0.1070
     32 C         142.6840  134.5032  156.0832 C.3     1  UNL1        0.0936
     33 N         143.6514  133.4213  156.4624 N.3     1  UNL1       -0.2712
     34 C         144.0853  132.2810  155.5898 C.3     1  UNL1        0.0722
     35 C         145.0567  131.4447  156.3689 C.3     1  UNL1        0.0188
     36 C         145.2231  132.0681  157.7230 C.3     1  UNL1        0.0188
     37 C         144.3546  133.2897  157.7809 C.3     1  UNL1        0.0722
@<TRIPOS>BOND
     1    27    28    2
     2    28    29   am
     3    29    31    1
     4    31    32    1
     5    32    33    1
     6    33    34    1
     7    34    35    1
     8    35    36    1
     9    36    37    1
    10    28     1    1
    11     1     2   ar
    12     2     3   ar
    13     3    12    1
    14    12    13   ar
    15    13    14   ar
    16    14    15   ar
    17    15    18    1
    18    18    19    2
    19    18    20    2
    20    18    21    1
    21    21    22    1
    22    22    23    1
    23    23    24    1
    24    24    25    1
    25    25    26    1
    26    15    16   ar
    27    16    17   ar
    28     3     4   ar
    29     4     5   ar
    30     5     6   ar
    31     6     7   ar
    32     7     8   ar
    33     8     9    1
    34     8    10   ar
    35    10    11   ar
    36    37    33    1
    37    11     1   ar
    38    17    12   ar
    39    11     5   ar
    40    26    21    1
    41    29    30    1
@<TRIPOS>MOLECULE
*****
 37 41 0 0 0
SMALL
GASTEIGER

@<TRIPOS>ATOM
      1 C         140.1996  141.6550  161.5440 C.ar    1  UNL1        0.0564
      2 C         140.4922  140.4214  160.7424 C.ar    1  UNL1        0.0237
      3 C         140.8228  140.5357  159.2838 C.ar    1  UNL1        0.0814
      4 N         140.8607  141.8836  158.6267 N.ar    1  UNL1       -0.2454
      5 C         140.5680  143.1173  159.4283 C.ar    1  UNL1        0.0815
      6 C         140.6060  144.4651  158.7713 C.ar    1  UNL1        0.0214
      7 C         140.3133  145.6987  159.5729 C.ar    1  UNL1        0.0312
      8 C         139.9827  145.5844  161.0315 C.ar    1  UNL1        0.1402
      9 F         139.6901  146.8181  161.8331 F       1  UNL1       -0.2042
     10 C         139.9448  144.2366  161.6886 C.ar    1  UNL1        0.0313
     11 C         140.2375  143.0030  160.8870 C.ar    1  UNL1        0.0243
     12 C         141.1155  139.3021  158.4822 C.ar    1  UNL1        0.0177
     13 C         140.0659  138.7299  157.5760 C.ar    1  UNL1        0.0029
     14 C         140.3586  137.4963  156.7745 C.ar    1  UNL1        0.0200
     15 C         141.7008  136.8349  156.8791 C.ar    1  UNL1        0.1222
     16 C         142.7503  137.4070  157.7853 C.ar    1  UNL1        0.0200
     17 C         142.4577  138.6406  158.5868 C.ar    1  UNL1        0.0029
     18 S         141.9935  135.6012  156.0775 S.O2    1  UNL1        0.0634
     19 O         140.7551  135.8357  155.2643 O.2     1  UNL1       -0.1528
     20 O         143.2319  135.3666  156.8907 O.2     1  UNL1       -0.1528
     21 N         142.2862  134.3676  155.2760 N.3     1  UNL1       -0.1504
     22 C         143.2256  133.3292  155.8137 C.3     1  UNL1        0.1279
     23 C         143.5184  132.0955  155.0122 C.3     1  UNL1        0.1613
     24 O         142.8716  131.9003  153.6729 O.3     1  UNL1       -0.3507
     25 C         141.9321  132.9387  153.1352 C.3     1  UNL1        0.1613
     26 C         141.6394  134.1723  153.9367 C.3     1  UNL1        0.1279
     27 O         140.8556  142.0031  164.0338 O.2     1  UNL1       -0.2701
     28 C         139.8690  141.5407  163.0027 C.2     1  UNL1        0.2460
     29 N         138.5520  140.9641  163.4303 N.am    1  UNL1       -0.2994
     30 H         137.9045  140.6606  162.7536 H       1  UNL1        0.1498
     31 C         138.2214  140.8498  164.8890 C.3     1  UNL1        0.1070
     32 C         138.5591  139.5950  165.6384 C.3     1  UNL1        0.0936
     33 N         139.7510  138.7784  165.2353 N.3     1  UNL1       -0.2712
     34 C         141.1600  138.9819  165.7081 C.3     1  UNL1        0.0722
     35 C         142.0230  137.9442  165.0536 C.3     1  UNL1        0.0188
     36 C         141.1475  137.0994  164.1763 C.3     1  UNL1        0.0188
     37 C         139.7433  137.6149  164.2886 C.3     1  UNL1        0.0722
@<TRIPOS>BOND
     1    27    28    2
     2    28    29   am
     3    29    31    1
     4    31    32    1
     5    32    33    1
     6    33    34    1
     7    34    35    1
     8    35    36    1
     9    36    37    1
    10    28     1    1
    11     1     2   ar
    12     2     3   ar
    13     3    12    1
    14    12    13   ar
    15    13    14   ar
    16    14    15   ar
    17    15    18    1
    18    18    19    2
    19    18    20    2
    20    18    21    1
    21    21    22    1
    22    22    23    1
    23    23    24    1
    24    24    25    1
    25    25    26    1
    26    15    16   ar
    27    16    17   ar
    28     3     4   ar
    29     4     5   ar
    30     5     6   ar
    31     6     7   ar
    32     7     8   ar
    33     8     9    1
    34     8    10   ar
    35    10    11   ar
    36    37    33    1
    37    11     1   ar
    38    17    12   ar
    39    11     5   ar
    40    26    21    1
    41    29    30    1
@<TRIPOS>MOLECULE
*****
 37 41 0 0 0
SMALL
GASTEIGER

@<TRIPOS>ATOM
      1 C         140.9915  140.4004  164.4142 C.ar    1  UNL1        0.0564
      2 C         140.6943  141.2980  163.2497 C.ar    1  UNL1        0.0237
      3 C         141.7797  141.6454  162.2743 C.ar    1  UNL1        0.0814
      4 N         143.1622  141.0951  162.4634 N.ar    1  UNL1       -0.2454
      5 C         143.4594  140.1975  163.6279 C.ar    1  UNL1        0.0815
      6 C         144.8420  139.6472  163.8169 C.ar    1  UNL1        0.0214
      7 C         145.1392  138.7496  164.9814 C.ar    1  UNL1        0.0312
      8 C         144.0538  138.4023  165.9568 C.ar    1  UNL1        0.1402
      9 F         144.3511  137.5046  167.1212 F       1  UNL1       -0.2042
     10 C         142.6713  138.9525  165.7677 C.ar    1  UNL1        0.0313
     11 C         142.3741  139.8501  164.6033 C.ar    1  UNL1        0.0243
     12 C         141.4824  142.5430  161.1099 C.ar    1  UNL1        0.0177
     13 C         141.4387  141.9794  159.7205 C.ar    1  UNL1        0.0029
     14 C         141.1414  142.8771  158.5561 C.ar    1  UNL1        0.0200
     15 C         140.8879  144.3383  158.7811 C.ar    1  UNL1        0.1222
     16 C         140.9317  144.9018  160.1705 C.ar    1  UNL1        0.0200
     17 C         141.2289  144.0042  161.3348 C.ar    1  UNL1        0.0029
     18 S         140.5907  145.2359  157.6166 S.O2    1  UNL1        0.0634
     19 O         141.7588  146.1015  157.9856 O.2     1  UNL1       -0.1528
     20 O         139.4226  144.3703  157.2476 O.2     1  UNL1       -0.1528
     21 N         140.2934  146.1335  156.4522 N.3     1  UNL1       -0.1504
     22 C         139.2899  147.2392  156.5946 C.3     1  UNL1        0.1279
     23 C         138.9925  148.1368  155.4301 C.3     1  UNL1        0.1613
     24 O         139.6988  147.9287  154.1232 O.3     1  UNL1       -0.3507
     25 C         140.7024  146.8229  153.9809 C.3     1  UNL1        0.1613
     26 C         140.9996  145.9254  155.1453 C.3     1  UNL1        0.1279
     27 O         138.5951  139.5189  164.8938 O.2     1  UNL1       -0.2701
     28 C         139.9062  140.0531  165.3896 C.2     1  UNL1        0.2460
     29 N         140.1319  140.2400  166.8606 N.am    1  UNL1       -0.2994
     30 H         140.9924  140.5906  167.1860 H       1  UNL1        0.1498
     31 C         139.0465  139.8926  167.8360 C.3     1  UNL1        0.1070
     32 C         139.1783  140.2883  169.2769 C.3     1  UNL1        0.0936
     33 N         140.2471  141.2544  169.6947 N.3     1  UNL1       -0.2712
     34 C         141.4469  140.9325  170.5353 C.3     1  UNL1        0.0722
     35 C         142.2451  142.1911  170.7053 C.3     1  UNL1        0.0188
     36 C         141.5385  143.2909  169.9697 C.3     1  UNL1        0.0188
     37 C         140.3036  142.7120  169.3451 C.3     1  UNL1        0.0722
@<TRIPOS>BOND
     1    27    28    2
     2    28    29   am
     3    29    31    1
     4    31    32    1
     5    32    33    1
     6    33    34    1
     7    34    35    1
     8    35    36    1
     9    36    37    1
    10    28     1    1
    11     1     2   ar
    12     2     3   ar
    13     3    12    1
    14    12    13   ar
    15    13    14   ar
    16    14    15   ar
    17    15    18    1
    18    18    19    2
    19    18    20    2
    20    18    21    1
    21    21    22    1
    22    22    23    1
    23    23    24    1
    24    24    25    1
    25    25    26    1
    26    15    16   ar
    27    16    17   ar
    28     3     4   ar
    29     4     5   ar
    30     5     6   ar
    31     6     7   ar
    32     7     8   ar
    33     8     9    1
    34     8    10   ar
    35    10    11   ar
    36    37    33    1
    37    11     1   ar
    38    17    12   ar
    39    11     5   ar
    40    26    21    1
    41    29    30    1
@<TRIPOS>MOLECULE
*****
 37 41 0 0 0
SMALL
GASTEIGER

@<TRIPOS>ATOM
      1 C         139.7209  140.4386  160.3534 C.ar    1  UNL1        0.0564
      2 C         140.0819  139.1981  159.5913 C.ar    1  UNL1        0.0237
      3 C         140.9817  139.2883  158.3945 C.ar    1  UNL1        0.0814
      4 N         141.5204  140.6190  157.9598 N.ar    1  UNL1       -0.2454
      5 C         141.1594  141.8595  158.7219 C.ar    1  UNL1        0.0815
      6 C         141.6982  143.1902  158.2872 C.ar    1  UNL1        0.0214
      7 C         141.3371  144.4307  159.0493 C.ar    1  UNL1        0.0312
      8 C         140.4374  144.3405  160.2461 C.ar    1  UNL1        0.1402
      9 F         140.0764  145.5811  161.0082 F       1  UNL1       -0.2042
     10 C         139.8986  143.0098  160.6808 C.ar    1  UNL1        0.0313
     11 C         140.2597  141.7693  159.9187 C.ar    1  UNL1        0.0243
     12 C         141.3427  138.0477  157.6324 C.ar    1  UNL1        0.0177
     13 C         142.6000  137.3013  157.9668 C.ar    1  UNL1        0.0029
     14 C         142.9610  136.0608  157.2047 C.ar    1  UNL1        0.0200
     15 C         142.0646  135.5667  156.1082 C.ar    1  UNL1        0.1222
     16 C         140.8072  136.3132  155.7738 C.ar    1  UNL1        0.0200
     17 C         140.4463  137.5536  156.5359 C.ar    1  UNL1        0.0029
     18 S         142.4256  134.3262  155.3460 S.O2    1  UNL1        0.0634
     19 O         142.3763  133.5310  156.6169 O.2     1  UNL1       -0.1528
     20 O         142.4749  135.1213  154.0751 O.2     1  UNL1       -0.1528
     21 N         142.7866  133.0857  154.5839 N.3     1  UNL1       -0.1504
     22 C         142.2400  132.8675  153.2042 C.3     1  UNL1        0.1279
     23 C         142.6010  131.6269  152.4420 C.3     1  UNL1        0.1613
     24 O         143.5086  130.6047  153.0596 O.3     1  UNL1       -0.3507
     25 C         144.0551  130.8230  154.4394 C.3     1  UNL1        0.1613
     26 C         143.6941  132.0635  155.2015 C.3     1  UNL1        0.1279
     27 O         137.3714  140.7134  161.4277 O.2     1  UNL1       -0.2701
     28 C         138.8212  140.3483  161.5502 C.2     1  UNL1        0.2460
     29 N         139.3711  139.8931  162.8693 N.am    1  UNL1       -0.2994
     30 H         140.3226  139.6535  162.9497 H       1  UNL1        0.1498
     31 C         138.4713  139.8029  164.0661 C.3     1  UNL1        0.1070
     32 C         138.4754  140.8976  165.0917 C.3     1  UNL1        0.0936
     33 N         138.7048  142.3189  164.6706 N.3     1  UNL1       -0.2712
     34 C         137.7250  143.1926  163.9449 C.3     1  UNL1        0.0722
     35 C         138.3690  144.5297  163.7270 C.3     1  UNL1        0.0188
     36 C         139.7468  144.4824  164.3182 C.3     1  UNL1        0.0188
     37 C         139.9544  143.1160  164.9014 C.3     1  UNL1        0.0722
@<TRIPOS>BOND
     1    27    28    2
     2    28    29   am
     3    29    31    1
     4    31    32    1
     5    32    33    1
     6    33    34    1
     7    34    35    1
     8    35    36    1
     9    36    37    1
    10    28     1    1
    11     1     2   ar
    12     2     3   ar
    13     3    12    1
    14    12    13   ar
    15    13    14   ar
    16    14    15   ar
    17    15    18    1
    18    18    19    2
    19    18    20    2
    20    18    21    1
    21    21    22    1
    22    22    23    1
    23    23    24    1
    24    24    25    1
    25    25    26    1
    26    15    16   ar
    27    16    17   ar
    28     3     4   ar
    29     4     5   ar
    30     5     6   ar
    31     6     7   ar
    32     7     8   ar
    33     8     9    1
    34     8    10   ar
    35    10    11   ar
    36    37    33    1
    37    11     1   ar
    38    17    12   ar
    39    11     5   ar
    40    26    21    1
    41    29    30    1
