@<TRIPOS>MOLECULE
*****
 32 35 0 0 0
SMALL
GASTEIGER

@<TRIPOS>ATOM
      1 C         137.3088  138.0127  167.3415 C.3     1  UNL1        0.0420
      2 C         138.2463  139.0799  166.8596 C.3     1  UNL1        0.1913
      3 O         138.3342  139.3959  165.3959 O.3     1  UNL1       -0.3500
      4 C         139.2717  140.4631  164.9140 C.3     1  UNL1        0.1145
      5 C         140.2092  141.5303  164.4321 C.3     1  UNL1        0.0463
      6 C         140.2970  141.8463  162.9685 C.3     1  UNL1        0.0746
      7 N         139.4474  141.0952  161.9867 N.3     1  UNL1       -0.2722
      8 C         138.5099  140.0280  162.4685 C.3     1  UNL1        0.0746
      9 C         138.4221  139.7120  163.9322 C.3     1  UNL1        0.0463
     10 C         140.1213  141.2143  165.8958 C.3     1  UNL1        0.1268
     11 N         140.0334  140.8982  167.3595 N.am    1  UNL1       -0.2395
     12 C         139.0959  139.8310  167.8414 C.2     1  UNL1        0.2576
     13 O         139.0080  139.5150  169.3051 O.2     1  UNL1       -0.2719
     14 C         140.8830  141.6494  168.3413 C.ar    1  UNL1        0.1414
     15 N         140.3505  142.8865  169.0015 N.ar    1  UNL1       -0.2288
     16 C         141.2001  143.6377  169.9833 C.ar    1  UNL1        0.1003
     17 C         142.5823  143.1517  170.3049 C.ar    1  UNL1        0.0207
     18 C         143.1148  141.9145  169.6447 C.ar    1  UNL1        0.0083
     19 C         142.2652  141.1633  168.6629 C.ar    1  UNL1        0.1033
     20 C         142.7977  139.9262  168.0028 C.3     1  UNL1        0.4212
     21 F         143.3303  138.6890  167.3426 F       1  UNL1       -0.1657
     22 F         143.2560  140.7471  166.8340 F       1  UNL1       -0.1657
     23 F         142.3395  139.1053  169.1715 F       1  UNL1       -0.1657
     24 C         139.5353  141.4112  160.5229 C.3     1  UNL1        0.0769
     25 C         140.6861  140.8939  159.7117 C.3     1  UNL1        0.0459
     26 C         141.6991  139.9845  160.3418 C.ar    1  UNL1        0.0067
     27 C         143.0452  140.5181  160.7332 C.ar    1  UNL1       -0.0020
     28 C         144.0581  139.6087  161.3632 C.ar    1  UNL1       -0.0002
     29 C         143.7249  138.1658  161.6019 C.ar    1  UNL1        0.0023
     30 C         142.3788  137.6322  161.2105 C.ar    1  UNL1        0.0293
     31 C         141.3659  138.5416  160.5805 C.ar    1  UNL1        0.1362
     32 F         140.0196  138.0081  160.1890 F       1  UNL1       -0.2045
@<TRIPOS>BOND
     1     2     1    1
     2     2     3    1
     3     3     4    1
     4     4     5    1
     5     5     6    1
     6     6     7    1
     7     7    24    1
     8    24    25    1
     9    25    26    1
    10    26    27   ar
    11    27    28   ar
    12    28    29   ar
    13    29    30   ar
    14    30    31   ar
    15    31    32    1
    16     7     8    1
    17     8     9    1
    18     4    10    1
    19    10    11    1
    20    11    14    1
    21    14    15   ar
    22    15    16   ar
    23    16    17   ar
    24    17    18   ar
    25    18    19   ar
    26    19    20    1
    27    20    21    1
    28    20    22    1
    29    20    23    1
    30    11    12   am
    31    12    13    2
    32    12     2    1
    33     9     4    1
    34    19    14   ar
    35    31    26   ar
@<TRIPOS>MOLECULE
*****
 32 35 0 0 0
SMALL
GASTEIGER

@<TRIPOS>ATOM
      1 C         137.0865  138.0633  167.6517 C.3     1  UNL1        0.0420
      2 C         138.1199  139.0053  167.1086 C.3     1  UNL1        0.1913
      3 O         138.2658  139.1851  165.6266 O.3     1  UNL1       -0.3500
      4 C         139.2992  140.1270  165.0835 C.3     1  UNL1        0.1145
      5 C         140.3326  141.0690  164.5404 C.3     1  UNL1        0.0463
      6 C         140.4785  141.2488  163.0585 C.3     1  UNL1        0.0746
      7 N         139.5911  140.4866  162.1195 N.3     1  UNL1       -0.2722
      8 C         138.5577  139.5447  162.6625 C.3     1  UNL1        0.0746
      9 C         138.4118  139.3649  164.1445 C.3     1  UNL1        0.0463
     10 C         140.1866  140.8892  166.0224 C.3     1  UNL1        0.1268
     11 N         140.0407  140.7093  167.5045 N.am    1  UNL1       -0.2395
     12 C         139.0073  139.7674  168.0475 C.2     1  UNL1        0.2576
     13 O         138.8614  139.5876  169.5296 O.2     1  UNL1       -0.2719
     14 C         140.9281  141.4715  168.4434 C.ar    1  UNL1        0.1414
     15 N         140.4503  142.7580  169.0489 N.ar    1  UNL1       -0.2288
     16 C         141.3377  143.5201  169.9879 C.ar    1  UNL1        0.1003
     17 C         142.7029  142.9958  170.3214 C.ar    1  UNL1        0.0207
     18 C         143.1808  141.7092  169.7159 C.ar    1  UNL1        0.0083
     19 C         142.2933  140.9471  168.7769 C.ar    1  UNL1        0.1033
     20 C         142.7711  139.6606  168.1715 C.3     1  UNL1        0.4212
     21 F         143.2489  138.3741  167.5660 F       1  UNL1       -0.1657
     22 F         143.2455  140.4069  166.9600 F       1  UNL1       -0.1657
     23 F         142.2967  138.9142  169.3830 F       1  UNL1       -0.1657
     24 C         139.7371  140.6665  160.6374 C.3     1  UNL1        0.0769
     25 C         139.1660  141.8821  159.9696 C.3     1  UNL1        0.0459
     26 C         139.3854  143.2397  160.5687 C.ar    1  UNL1        0.0067
     27 C         140.4441  144.1438  160.0101 C.ar    1  UNL1       -0.0020
     28 C         140.6634  145.5013  160.6092 C.ar    1  UNL1       -0.0002
     29 C         139.8242  145.9548  161.7668 C.ar    1  UNL1        0.0023
     30 C         138.7655  145.0508  162.3253 C.ar    1  UNL1        0.0293
     31 C         138.5462  143.6932  161.7262 C.ar    1  UNL1        0.1362
     32 F         137.4875  142.7891  162.2847 F       1  UNL1       -0.2045
@<TRIPOS>BOND
     1     2     1    1
     2     2     3    1
     3     3     4    1
     4     4     5    1
     5     5     6    1
     6     6     7    1
     7     7    24    1
     8    24    25    1
     9    25    26    1
    10    26    27   ar
    11    27    28   ar
    12    28    29   ar
    13    29    30   ar
    14    30    31   ar
    15    31    32    1
    16     7     8    1
    17     8     9    1
    18     4    10    1
    19    10    11    1
    20    11    14    1
    21    14    15   ar
    22    15    16   ar
    23    16    17   ar
    24    17    18   ar
    25    18    19   ar
    26    19    20    1
    27    20    21    1
    28    20    22    1
    29    20    23    1
    30    11    12   am
    31    12    13    2
    32    12     2    1
    33     9     4    1
    34    19    14   ar
    35    31    26   ar
@<TRIPOS>MOLECULE
*****
 32 35 0 0 0
SMALL
GASTEIGER

@<TRIPOS>ATOM
      1 C         137.3508  138.1466  167.1631 C.3     1  UNL1        0.0420
      2 C         138.1801  139.3237  166.7425 C.3     1  UNL1        0.1913
      3 O         138.0720  139.8560  165.3443 O.3     1  UNL1       -0.3500
      4 C         138.9012  141.0331  164.9236 C.3     1  UNL1        0.1145
      5 C         139.7304  142.2101  164.5031 C.3     1  UNL1        0.0463
      6 C         139.6223  142.7424  163.1049 C.3     1  UNL1        0.0746
      7 N         138.6850  142.0977  162.1273 N.3     1  UNL1       -0.2722
      8 C         137.8558  140.9206  162.5479 C.3     1  UNL1        0.0746
      9 C         137.9639  140.3883  163.9460 C.3     1  UNL1        0.0463
     10 C         139.8385  141.6779  165.9013 C.3     1  UNL1        0.1268
     11 N         139.9466  141.1455  167.2995 N.am    1  UNL1       -0.2395
     12 C         139.1174  139.9685  167.7201 C.2     1  UNL1        0.2576
     13 O         139.2254  139.4361  169.1183 O.2     1  UNL1       -0.2719
     14 C         140.8839  141.7903  168.2771 C.ar    1  UNL1        0.1414
     15 N         140.4356  142.9801  169.0729 N.ar    1  UNL1       -0.2288
     16 C         141.3729  143.6248  170.0506 C.ar    1  UNL1        0.1003
     17 C         142.7585  143.0798  170.2323 C.ar    1  UNL1        0.0207
     18 C         143.2068  141.8899  169.4365 C.ar    1  UNL1        0.0083
     19 C         142.2695  141.2452  168.4589 C.ar    1  UNL1        0.1033
     20 C         142.7178  140.0554  167.6630 C.3     1  UNL1        0.4212
     21 F         143.1660  138.8656  166.8672 F       1  UNL1       -0.1657
     22 F         142.3151  139.1503  168.7894 F       1  UNL1       -0.1657
     23 F         143.1204  140.9605  166.5367 F       1  UNL1       -0.1657
     24 C         138.5769  142.6300  160.7291 C.3     1  UNL1        0.0769
     25 C         139.8105  142.7949  159.8919 C.3     1  UNL1        0.0459
     26 C         139.7983  143.7219  158.7126 C.ar    1  UNL1        0.0067
     27 C         139.2510  143.2542  157.3967 C.ar    1  UNL1       -0.0020
     28 C         139.2388  144.1812  156.2175 C.ar    1  UNL1       -0.0002
     29 C         139.7740  145.5758  156.3542 C.ar    1  UNL1        0.0023
     30 C         140.3213  146.0434  157.6702 C.ar    1  UNL1        0.0293
     31 C         140.3335  145.1165  158.8493 C.ar    1  UNL1        0.1362
     32 F         140.8809  145.5840  160.1654 F       1  UNL1       -0.2045
@<TRIPOS>BOND
     1     2     1    1
     2     2     3    1
     3     3     4    1
     4     4     5    1
     5     5     6    1
     6     6     7    1
     7     7    24    1
     8    24    25    1
     9    25    26    1
    10    26    27   ar
    11    27    28   ar
    12    28    29   ar
    13    29    30   ar
    14    30    31   ar
    15    31    32    1
    16     7     8    1
    17     8     9    1
    18     4    10    1
    19    10    11    1
    20    11    14    1
    21    14    15   ar
    22    15    16   ar
    23    16    17   ar
    24    17    18   ar
    25    18    19   ar
    26    19    20    1
    27    20    21    1
    28    20    22    1
    29    20    23    1
    30    11    12   am
    31    12    13    2
    32    12     2    1
    33     9     4    1
    34    19    14   ar
    35    31    26   ar
@<TRIPOS>MOLECULE
*****
 32 35 0 0 0
SMALL
GASTEIGER

@<TRIPOS>ATOM
      1 C         137.9531  138.6287  161.6044 C.3     1  UNL1        0.0420
      2 C         138.8555  139.6492  162.2324 C.3     1  UNL1        0.1913
      3 O         139.6821  139.2839  163.4295 O.3     1  UNL1       -0.3500
      4 C         140.5845  140.3044  164.0576 C.3     1  UNL1        0.1145
      5 C         141.4868  141.3249  164.6855 C.3     1  UNL1        0.0463
      6 C         142.3135  140.9597  165.8827 C.3     1  UNL1        0.0746
      7 N         142.2378  139.5739  166.4519 N.3     1  UNL1       -0.2722
      8 C         141.3355  138.5534  165.8239 C.3     1  UNL1        0.0746
      9 C         140.5088  138.9187  164.6268 C.3     1  UNL1        0.0463
     10 C         140.6602  141.6902  163.4884 C.3     1  UNL1        0.1268
     11 N         139.8335  142.0554  162.2911 N.am    1  UNL1       -0.2395
     12 C         138.9312  141.0349  161.6632 C.2     1  UNL1        0.2576
     13 O         138.1045  141.4001  160.4660 O.2     1  UNL1       -0.2719
     14 C         139.9092  143.4411  161.7219 C.ar    1  UNL1        0.1414
     15 N         140.6559  143.6875  160.4446 N.ar    1  UNL1       -0.2288
     16 C         140.7316  145.0733  159.8754 C.ar    1  UNL1        0.1003
     17 C         140.0606  146.2126  160.5835 C.ar    1  UNL1        0.0207
     18 C         139.3138  145.9663  161.8609 C.ar    1  UNL1        0.0083
     19 C         139.2381  144.5805  162.4301 C.ar    1  UNL1        0.1033
     20 C         138.4914  144.3342  163.7075 C.3     1  UNL1        0.4212
     21 F         137.7447  144.0878  164.9848 F       1  UNL1       -0.1657
     22 F         137.2895  143.9012  162.9214 F       1  UNL1       -0.1657
     23 F         139.6932  144.7672  164.4936 F       1  UNL1       -0.1657
     24 C         143.0645  139.2087  167.6491 C.3     1  UNL1        0.0769
     25 C         142.4901  139.3474  169.0277 C.3     1  UNL1        0.0459
     26 C         141.7087  140.5742  169.3948 C.ar    1  UNL1        0.0067
     27 C         140.2249  140.4860  169.5959 C.ar    1  UNL1       -0.0020
     28 C         139.4437  141.7128  169.9630 C.ar    1  UNL1       -0.0002
     29 C         140.1463  143.0276  170.1290 C.ar    1  UNL1        0.0023
     30 C         141.6301  143.1157  169.9279 C.ar    1  UNL1        0.0293
     31 C         142.4113  141.8890  169.5608 C.ar    1  UNL1        0.1362
     32 F         143.8952  141.9771  169.3597 F       1  UNL1       -0.2045
@<TRIPOS>BOND
     1     2     1    1
     2     2     3    1
     3     3     4    1
     4     4     5    1
     5     5     6    1
     6     6     7    1
     7     7    24    1
     8    24    25    1
     9    25    26    1
    10    26    27   ar
    11    27    28   ar
    12    28    29   ar
    13    29    30   ar
    14    30    31   ar
    15    31    32    1
    16     7     8    1
    17     8     9    1
    18     4    10    1
    19    10    11    1
    20    11    14    1
    21    14    15   ar
    22    15    16   ar
    23    16    17   ar
    24    17    18   ar
    25    18    19   ar
    26    19    20    1
    27    20    21    1
    28    20    22    1
    29    20    23    1
    30    11    12   am
    31    12    13    2
    32    12     2    1
    33     9     4    1
    34    19    14   ar
    35    31    26   ar
@<TRIPOS>MOLECULE
*****
 32 35 0 0 0
SMALL
GASTEIGER

@<TRIPOS>ATOM
      1 C         139.0642  140.3046  159.4737 C.3     1  UNL1        0.0420
      2 C         139.6273  141.6945  159.4393 C.3     1  UNL1        0.1913
      3 O         139.3273  142.5968  158.2792 O.3     1  UNL1       -0.3500
      4 C         139.8904  143.9867  158.2448 C.3     1  UNL1        0.1145
      5 C         140.4535  145.3765  158.2105 C.3     1  UNL1        0.0463
      6 C         140.1536  146.2788  157.0504 C.3     1  UNL1        0.0746
      7 N         139.2906  145.7912  155.9246 N.3     1  UNL1       -0.2722
      8 C         138.7275  144.4013  155.9589 C.3     1  UNL1        0.0746
      9 C         139.0274  143.4991  157.1190 C.3     1  UNL1        0.0463
     10 C         140.7534  144.4743  159.3707 C.3     1  UNL1        0.1268
     11 N         141.0534  143.5719  160.5308 N.am    1  UNL1       -0.2395
     12 C         140.4903  142.1821  160.5651 C.2     1  UNL1        0.2576
     13 O         140.7902  141.2798  161.7253 O.2     1  UNL1       -0.2719
     14 C         141.9164  144.0595  161.6567 C.ar    1  UNL1        0.1414
     15 N         143.3975  143.8248  161.6222 N.ar    1  UNL1       -0.2288
     16 C         144.2605  144.3124  162.7481 C.ar    1  UNL1        0.1003
     17 C         143.6424  145.0347  163.9083 C.ar    1  UNL1        0.0207
     18 C         142.1612  145.2695  163.9428 C.ar    1  UNL1        0.0083
     19 C         141.2982  144.7819  162.8169 C.ar    1  UNL1        0.1033
     20 C         139.8171  145.0166  162.8513 C.3     1  UNL1        0.4212
     21 F         138.3360  145.2513  162.8858 F       1  UNL1       -0.1657
     22 F         140.0038  146.3041  162.1047 F       1  UNL1       -0.1657
     23 F         139.6304  143.7292  163.5980 F       1  UNL1       -0.1657
     24 C         138.9907  146.6935  154.7644 C.3     1  UNL1        0.0769
     25 C         139.9695  147.7598  154.3710 C.3     1  UNL1        0.0459
     26 C         139.5391  149.1963  154.3341 C.ar    1  UNL1        0.0067
     27 C         139.8053  150.0279  153.1144 C.ar    1  UNL1       -0.0020
     28 C         139.3750  151.4643  153.0775 C.ar    1  UNL1       -0.0002
     29 C         138.6783  152.0692  154.2603 C.ar    1  UNL1        0.0023
     30 C         138.4121  151.2376  155.4799 C.ar    1  UNL1        0.0293
     31 C         138.8425  149.8012  155.5168 C.ar    1  UNL1        0.1362
     32 F         138.5763  148.9695  156.7365 F       1  UNL1       -0.2045
@<TRIPOS>BOND
     1     2     1    1
     2     2     3    1
     3     3     4    1
     4     4     5    1
     5     5     6    1
     6     6     7    1
     7     7    24    1
     8    24    25    1
     9    25    26    1
    10    26    27   ar
    11    27    28   ar
    12    28    29   ar
    13    29    30   ar
    14    30    31   ar
    15    31    32    1
    16     7     8    1
    17     8     9    1
    18     4    10    1
    19    10    11    1
    20    11    14    1
    21    14    15   ar
    22    15    16   ar
    23    16    17   ar
    24    17    18   ar
    25    18    19   ar
    26    19    20    1
    27    20    21    1
    28    20    22    1
    29    20    23    1
    30    11    12   am
    31    12    13    2
    32    12     2    1
    33     9     4    1
    34    19    14   ar
    35    31    26   ar
@<TRIPOS>MOLECULE
*****
 32 35 0 0 0
SMALL
GASTEIGER

@<TRIPOS>ATOM
      1 C         137.2162  138.0464  167.3159 C.3     1  UNL1        0.0420
      2 C         138.1607  139.1026  166.8234 C.3     1  UNL1        0.1913
      3 O         138.2164  139.4366  165.3622 O.3     1  UNL1       -0.3500
      4 C         139.1609  140.4928  164.8697 C.3     1  UNL1        0.1145
      5 C         140.1054  141.5488  164.3773 C.3     1  UNL1        0.0463
      6 C         140.1611  141.8829  162.9160 C.3     1  UNL1        0.0746
      7 N         139.2722  141.1609  161.9472 N.3     1  UNL1       -0.2722
      8 C         138.3277  140.1048  162.4396 C.3     1  UNL1        0.0746
      9 C         138.2720  139.7708  163.9009 C.3     1  UNL1        0.0463
     10 C         140.0498  141.2148  165.8385 C.3     1  UNL1        0.1268
     11 N         139.9941  140.8806  167.2998 N.am    1  UNL1       -0.2395
     12 C         139.0496  139.8246  167.7922 C.2     1  UNL1        0.2576
     13 O         138.9939  139.4904  169.2535 O.2     1  UNL1       -0.2719
     14 C         140.8830  141.6027  168.2686 C.ar    1  UNL1        0.1414
     15 N         140.4025  142.8572  168.9357 N.ar    1  UNL1       -0.2288
     16 C         141.2914  143.5792  169.9045 C.ar    1  UNL1        0.1003
     17 C         142.6608  143.0467  170.2062 C.ar    1  UNL1        0.0207
     18 C         143.1414  141.7920  169.5391 C.ar    1  UNL1        0.0083
     19 C         142.2525  141.0700  168.5703 C.ar    1  UNL1        0.1033
     20 C         142.7330  139.8154  167.9032 C.3     1  UNL1        0.4212
     21 F         143.2135  138.5608  167.2361 F       1  UNL1       -0.1657
     22 F         142.2918  139.0143  169.0920 F       1  UNL1       -0.1657
     23 F         143.1742  140.6166  166.7143 F       1  UNL1       -0.1657
     24 C         139.3279  141.4950  160.4859 C.3     1  UNL1        0.0769
     25 C         138.3381  140.8843  159.5387 C.3     1  UNL1        0.0459
     26 C         138.8174  140.0489  158.3887 C.ar    1  UNL1        0.0067
     27 C         138.5710  140.5005  156.9797 C.ar    1  UNL1       -0.0020
     28 C         139.0503  139.6652  155.8297 C.ar    1  UNL1       -0.0002
     29 C         139.7761  138.3782  156.0888 C.ar    1  UNL1        0.0023
     30 C         140.0225  137.9267  157.4978 C.ar    1  UNL1        0.0293
     31 C         139.5432  138.7620  158.6477 C.ar    1  UNL1        0.1362
     32 F         139.7896  138.3105  160.0568 F       1  UNL1       -0.2045
@<TRIPOS>BOND
     1     2     1    1
     2     2     3    1
     3     3     4    1
     4     4     5    1
     5     5     6    1
     6     6     7    1
     7     7    24    1
     8    24    25    1
     9    25    26    1
    10    26    27   ar
    11    27    28   ar
    12    28    29   ar
    13    29    30   ar
    14    30    31   ar
    15    31    32    1
    16     7     8    1
    17     8     9    1
    18     4    10    1
    19    10    11    1
    20    11    14    1
    21    14    15   ar
    22    15    16   ar
    23    16    17   ar
    24    17    18   ar
    25    18    19   ar
    26    19    20    1
    27    20    21    1
    28    20    22    1
    29    20    23    1
    30    11    12   am
    31    12    13    2
    32    12     2    1
    33     9     4    1
    34    19    14   ar
    35    31    26   ar
@<TRIPOS>MOLECULE
*****
 32 35 0 0 0
SMALL
GASTEIGER

@<TRIPOS>ATOM
      1 C         138.5565  144.9252  165.8390 C.3     1  UNL1        0.0420
      2 C         139.4323  144.1976  164.8624 C.3     1  UNL1        0.1913
      3 O         139.6371  144.7498  163.4828 O.3     1  UNL1       -0.3500
      4 C         140.5129  144.0223  162.5062 C.3     1  UNL1        0.1145
      5 C         141.3887  143.2947  161.5296 C.3     1  UNL1        0.0463
      6 C         141.5935  143.8469  160.1501 C.3     1  UNL1        0.0746
      7 N         140.9225  145.1265  159.7471 N.3     1  UNL1       -0.2722
      8 C         140.0468  145.8540  160.7237 C.3     1  UNL1        0.0746
      9 C         139.8420  145.3019  162.1032 C.3     1  UNL1        0.0463
     10 C         141.1839  142.7426  162.9091 C.3     1  UNL1        0.1268
     11 N         140.9790  142.1905  164.2888 N.am    1  UNL1       -0.2395
     12 C         140.1033  142.9180  165.2653 C.2     1  UNL1        0.2576
     13 O         139.8984  142.3659  166.6449 O.2     1  UNL1       -0.2719
     14 C         141.6500  140.9109  164.6917 C.ar    1  UNL1        0.1414
     15 N         140.9538  139.5995  164.4785 N.ar    1  UNL1       -0.2288
     16 C         141.6247  138.3199  164.8815 C.ar    1  UNL1        0.1003
     17 C         142.9919  138.3516  165.4977 C.ar    1  UNL1        0.0207
     18 C         143.6882  139.6631  165.7109 C.ar    1  UNL1        0.0083
     19 C         143.0173  140.9427  165.3079 C.ar    1  UNL1        0.1033
     20 C         143.7135  142.2541  165.5212 C.3     1  UNL1        0.4212
     21 F         144.4097  143.5654  165.7344 F       1  UNL1       -0.1657
     22 F         144.3480  142.1374  164.1670 F       1  UNL1       -0.1657
     23 F         143.0790  142.3708  166.8753 F       1  UNL1       -0.1657
     24 C         141.1274  145.6786  158.3675 C.3     1  UNL1        0.0769
     25 C         140.0374  145.5622  157.3436 C.3     1  UNL1        0.0459
     26 C         140.0477  146.4481  156.1331 C.ar    1  UNL1        0.0067
     27 C         140.8021  146.0316  154.9054 C.ar    1  UNL1       -0.0020
     28 C         140.8125  146.9174  153.6949 C.ar    1  UNL1       -0.0002
     29 C         140.0684  148.2198  153.7123 C.ar    1  UNL1        0.0023
     30 C         139.3140  148.6362  154.9400 C.ar    1  UNL1        0.0293
     31 C         139.3036  147.7504  156.1504 C.ar    1  UNL1        0.1362
     32 F         138.5492  148.1669  157.3782 F       1  UNL1       -0.2045
@<TRIPOS>BOND
     1     2     1    1
     2     2     3    1
     3     3     4    1
     4     4     5    1
     5     5     6    1
     6     6     7    1
     7     7    24    1
     8    24    25    1
     9    25    26    1
    10    26    27   ar
    11    27    28   ar
    12    28    29   ar
    13    29    30   ar
    14    30    31   ar
    15    31    32    1
    16     7     8    1
    17     8     9    1
    18     4    10    1
    19    10    11    1
    20    11    14    1
    21    14    15   ar
    22    15    16   ar
    23    16    17   ar
    24    17    18   ar
    25    18    19   ar
    26    19    20    1
    27    20    21    1
    28    20    22    1
    29    20    23    1
    30    11    12   am
    31    12    13    2
    32    12     2    1
    33     9     4    1
    34    19    14   ar
    35    31    26   ar
@<TRIPOS>MOLECULE
*****
 32 35 0 0 0
SMALL
GASTEIGER

@<TRIPOS>ATOM
      1 C         144.0615  139.0815  164.9840 C.3     1  UNL1        0.0420
      2 C         143.0519  139.5296  163.9691 C.3     1  UNL1        0.1913
      3 O         143.0199  138.8929  162.6113 O.3     1  UNL1       -0.3500
      4 C         142.0103  139.3411  161.5964 C.3     1  UNL1        0.1145
      5 C         141.0008  139.7892  160.5815 C.3     1  UNL1        0.0463
      6 C         140.9688  139.1525  159.2238 C.3     1  UNL1        0.0746
      7 N         141.9464  138.0677  158.8808 N.3     1  UNL1       -0.2722
      8 C         142.9559  137.6196  159.8957 C.3     1  UNL1        0.0746
      9 C         142.9879  138.2563  161.2534 C.3     1  UNL1        0.0463
     10 C         141.0327  140.4258  161.9393 C.3     1  UNL1        0.1268
     11 N         141.0648  141.0625  163.2971 N.am    1  UNL1       -0.2395
     12 C         142.0743  140.6144  164.3120 C.2     1  UNL1        0.2576
     13 O         142.1063  141.2511  165.6698 O.2     1  UNL1       -0.2719
     14 C         140.0872  142.1473  163.6401 C.ar    1  UNL1        0.1414
     15 N         140.4048  143.5753  163.3087 N.ar    1  UNL1       -0.2288
     16 C         139.4272  144.6601  163.6516 C.ar    1  UNL1        0.1003
     17 C         138.1320  144.3169  164.3259 C.ar    1  UNL1        0.0207
     18 C         137.8144  142.8888  164.6573 C.ar    1  UNL1        0.0083
     19 C         138.7920  141.8040  164.3144 C.ar    1  UNL1        0.1033
     20 C         138.4744  140.3760  164.6457 C.3     1  UNL1        0.4212
     21 F         138.1568  138.9479  164.9771 F       1  UNL1       -0.1657
     22 F         139.0031  140.5806  166.0344 F       1  UNL1       -0.1657
     23 F         137.9456  140.1713  163.2570 F       1  UNL1       -0.1657
     24 C         141.9144  137.4310  157.5230 C.3     1  UNL1        0.0769
     25 C         143.0091  136.4932  157.1084 C.3     1  UNL1        0.0459
     26 C         142.6710  135.1204  156.6071 C.ar    1  UNL1        0.0067
     27 C         141.8110  134.9576  155.3889 C.ar    1  UNL1       -0.0020
     28 C         141.4729  133.5849  154.8877 C.ar    1  UNL1       -0.0002
     29 C         141.9947  132.3750  155.6046 C.ar    1  UNL1        0.0023
     30 C         142.8547  132.5379  156.8227 C.ar    1  UNL1        0.0293
     31 C         143.1928  133.9106  157.3240 C.ar    1  UNL1        0.1362
     32 F         144.0528  134.0735  158.5422 F       1  UNL1       -0.2045
@<TRIPOS>BOND
     1     2     1    1
     2     2     3    1
     3     3     4    1
     4     4     5    1
     5     5     6    1
     6     6     7    1
     7     7    24    1
     8    24    25    1
     9    25    26    1
    10    26    27   ar
    11    27    28   ar
    12    28    29   ar
    13    29    30   ar
    14    30    31   ar
    15    31    32    1
    16     7     8    1
    17     8     9    1
    18     4    10    1
    19    10    11    1
    20    11    14    1
    21    14    15   ar
    22    15    16   ar
    23    16    17   ar
    24    17    18   ar
    25    18    19   ar
    26    19    20    1
    27    20    21    1
    28    20    22    1
    29    20    23    1
    30    11    12   am
    31    12    13    2
    32    12     2    1
    33     9     4    1
    34    19    14   ar
    35    31    26   ar
@<TRIPOS>MOLECULE
*****
 32 35 0 0 0
SMALL
GASTEIGER

@<TRIPOS>ATOM
      1 C         143.5444  145.0036  163.2602 C.3     1  UNL1        0.0420
      2 C         142.4232  144.2310  162.6308 C.3     1  UNL1        0.1913
      3 O         141.9494  144.5852  161.2524 O.3     1  UNL1       -0.3500
      4 C         140.8282  143.8126  160.6231 C.3     1  UNL1        0.1145
      5 C         139.7070  143.0400  159.9938 C.3     1  UNL1        0.0463
      6 C         139.2333  143.3942  158.6154 C.3     1  UNL1        0.0746
      7 N         139.8807  144.5211  157.8663 N.3     1  UNL1       -0.2722
      8 C         141.0018  145.2937  158.4956 C.3     1  UNL1        0.0746
      9 C         141.4756  144.9394  159.8740 C.3     1  UNL1        0.0463
     10 C         140.1808  142.6858  161.3722 C.3     1  UNL1        0.1268
     11 N         140.6546  142.3316  162.7506 N.am    1  UNL1       -0.2395
     12 C         141.7758  143.1042  163.3799 C.2     1  UNL1        0.2576
     13 O         142.2496  142.7500  164.7584 O.2     1  UNL1       -0.2719
     14 C         140.0072  141.2048  163.4997 C.ar    1  UNL1        0.1414
     15 N         140.5681  139.8173  163.3991 N.ar    1  UNL1       -0.2288
     16 C         139.9207  138.6904  164.1482 C.ar    1  UNL1        0.1003
     17 C         138.7124  138.9511  164.9979 C.ar    1  UNL1        0.0207
     18 C         138.1515  140.3387  165.0986 C.ar    1  UNL1        0.0083
     19 C         138.7989  141.4655  164.3495 C.ar    1  UNL1        0.1033
     20 C         138.2381  142.8531  164.4502 C.3     1  UNL1        0.4212
     21 F         137.6772  144.2406  164.5508 F       1  UNL1       -0.1657
     22 F         137.2879  142.5503  163.3297 F       1  UNL1       -0.1657
     23 F         139.1882  143.1558  165.5706 F       1  UNL1       -0.1657
     24 C         139.4069  144.8753  156.4878 C.3     1  UNL1        0.0769
     25 C         140.1860  145.8488  155.6540 C.3     1  UNL1        0.0459
     26 C         139.7357  147.2759  155.5501 C.ar    1  UNL1        0.0067
     27 C         138.9237  147.8882  156.6527 C.ar    1  UNL1       -0.0020
     28 C         138.4734  149.3153  156.5488 C.ar    1  UNL1       -0.0002
     29 C         138.8351  150.1299  155.3423 C.ar    1  UNL1        0.0023
     30 C         139.6471  149.5175  154.2397 C.ar    1  UNL1        0.0293
     31 C         140.0973  148.0905  154.3436 C.ar    1  UNL1        0.1362
     32 F         140.9093  147.4780  153.2410 F       1  UNL1       -0.2045
@<TRIPOS>BOND
     1     2     1    1
     2     2     3    1
     3     3     4    1
     4     4     5    1
     5     5     6    1
     6     6     7    1
     7     7    24    1
     8    24    25    1
     9    25    26    1
    10    26    27   ar
    11    27    28   ar
    12    28    29   ar
    13    29    30   ar
    14    30    31   ar
    15    31    32    1
    16     7     8    1
    17     8     9    1
    18     4    10    1
    19    10    11    1
    20    11    14    1
    21    14    15   ar
    22    15    16   ar
    23    16    17   ar
    24    17    18   ar
    25    18    19   ar
    26    19    20    1
    27    20    21    1
    28    20    22    1
    29    20    23    1
    30    11    12   am
    31    12    13    2
    32    12     2    1
    33     9     4    1
    34    19    14   ar
    35    31    26   ar
