@<TRIPOS>MOLECULE
*****
 33 36 0 0 0
SMALL
GASTEIGER

@<TRIPOS>ATOM
      1 N         138.1700  143.1761  162.5693 N.3     1  UNL1       -0.2700
      2 C         138.4758  142.6616  161.1939 C.3     1  UNL1        0.0897
      3 C         138.3341  141.1993  160.8915 C.3     1  UNL1        0.0897
      4 N         137.8865  140.2515  161.9645 N.3     1  UNL1       -0.2700
      5 C         137.5807  140.7659  163.3399 C.3     1  UNL1        0.0897
      6 C         137.7224  142.2283  163.6423 C.3     1  UNL1        0.0897
      7 C         138.3117  144.6385  162.8717 C.3     1  UNL1        0.0769
      8 C         139.4598  145.1240  163.7060 C.3     1  UNL1        0.0438
      9 C         143.4762  143.1191  163.3905 C.ar    1  UNL1        0.1025
     10 C         143.0539  144.1195  162.3556 C.ar    1  UNL1        0.0130
     11 C         141.7151  144.7877  162.4607 C.ar    1  UNL1       -0.0033
     12 C         140.7986  144.4557  163.6008 C.ar    1  UNL1       -0.0177
     13 C         141.2209  143.4554  164.6357 C.ar    1  UNL1        0.0337
     14 C         142.5597  142.7871  164.5305 C.ar    1  UNL1        0.1560
     15 N         146.1538  141.7826  163.1801 N.1     1  UNL1       -0.1907
     16 C         144.8150  142.4509  163.2853 C.1     1  UNL1        0.1035
     17 O         142.9820  141.7868  165.5655 O.3     1  UNL1       -0.4038
     18 C         143.1028  142.1998  167.0025 C.3     1  UNL1        0.5753
     19 F         143.2235  142.6128  168.4394 F       1  UNL1       -0.1328
     20 F         142.0160  141.2340  167.3713 F       1  UNL1       -0.1328
     21 F         144.1895  143.1656  166.6336 F       1  UNL1       -0.1328
     22 C         137.7448  138.7891  161.6621 C.3     1  UNL1        0.0769
     23 C         138.9617  137.9141  161.6025 C.3     1  UNL1        0.0437
     24 C         140.0331  138.0477  162.6438 C.ar    1  UNL1       -0.0210
     25 C         139.7188  137.7679  164.0835 C.ar    1  UNL1       -0.0040
     26 C         140.7903  137.9015  165.1247 C.ar    1  UNL1        0.0059
     27 C         142.1760  138.3149  164.7261 C.ar    1  UNL1        0.0751
     28 C         142.4903  138.5946  163.2864 C.ar    1  UNL1        0.0272
     29 C         141.4189  138.4610  162.2452 C.ar    1  UNL1       -0.0047
     30 C         143.9367  138.9814  163.1944 C.3     1  UNL1        0.2356
     31 O         144.5163  138.9406  164.5773 O.3     1  UNL1       -0.4404
     32 C         143.4282  138.5287  165.5240 C.2     1  UNL1        0.3413
     33 O         143.5676  138.3602  167.0080 O.2     1  UNL1       -0.2449
@<TRIPOS>BOND
     1    15    16    3
     2    16     9    1
     3     9    10   ar
     4    10    11   ar
     5    11    12   ar
     6    12     8    1
     7     8     7    1
     8     7     1    1
     9     1     2    1
    10     2     3    1
    11     3     4    1
    12     4    22    1
    13    22    23    1
    14    23    24    1
    15    24    25   ar
    16    25    26   ar
    17    26    27   ar
    18    27    28   ar
    19    28    29   ar
    20    28    30    1
    21    30    31    1
    22    31    32    1
    23    32    33    2
    24     4     5    1
    25     5     6    1
    26    12    13   ar
    27    13    14   ar
    28    14    17    1
    29    17    18    1
    30    18    19    1
    31    18    20    1
    32    18    21    1
    33    14     9   ar
    34     6     1    1
    35    29    24   ar
    36    32    27    1
@<TRIPOS>MOLECULE
*****
 33 36 0 0 0
SMALL
GASTEIGER

@<TRIPOS>ATOM
      1 N         144.1204  139.8682  163.9633 N.3     1  UNL1       -0.2700
      2 C         143.5730  139.6067  165.3351 C.3     1  UNL1        0.0897
      3 C         142.4078  138.6790  165.5133 C.3     1  UNL1        0.0897
      4 N         141.7901  138.0128  164.3198 N.3     1  UNL1       -0.2700
      5 C         142.3376  138.2743  162.9480 C.3     1  UNL1        0.0897
      6 C         143.5028  139.2019  162.7697 C.3     1  UNL1        0.0897
      7 C         145.2856  140.7959  163.7850 C.3     1  UNL1        0.0769
      8 C         145.1548  142.2438  164.1542 C.3     1  UNL1        0.0438
      9 C         141.7202  144.6720  162.5552 C.ar    1  UNL1        0.1025
     10 C         141.8605  144.4534  164.0325 C.ar    1  UNL1        0.0130
     11 C         143.0053  143.6440  164.5655 C.ar    1  UNL1       -0.0033
     12 C         144.0100  143.0532  163.6212 C.ar    1  UNL1       -0.0177
     13 C         143.8697  143.2719  162.1439 C.ar    1  UNL1        0.0337
     14 C         142.7248  144.0813  161.6109 C.ar    1  UNL1        0.1560
     15 N         139.4304  146.2908  161.4892 N.1     1  UNL1       -0.1907
     16 C         140.5753  145.4815  162.0222 C.1     1  UNL1        0.1035
     17 O         142.5846  144.3000  160.1336 O.3     1  UNL1       -0.4038
     18 C         142.4365  143.1255  159.2123 C.3     1  UNL1        0.5753
     19 F         142.2884  141.9511  158.2910 F       1  UNL1       -0.1328
     20 F         143.6294  143.5888  158.4299 F       1  UNL1       -0.1328
     21 F         141.2435  142.6621  159.9946 F       1  UNL1       -0.1328
     22 C         140.6249  137.0851  164.4980 C.3     1  UNL1        0.0769
     23 C         139.2706  137.6374  164.8306 C.3     1  UNL1        0.0437
     24 C         138.8938  139.0191  164.3844 C.ar    1  UNL1       -0.0210
     25 C         138.7084  140.1098  165.3973 C.ar    1  UNL1       -0.0040
     26 C         138.3316  141.4914  164.9511 C.ar    1  UNL1        0.0059
     27 C         138.1403  141.7824  163.4921 C.ar    1  UNL1        0.0751
     28 C         138.3257  140.6917  162.4792 C.ar    1  UNL1        0.0272
     29 C         138.7024  139.3100  162.9254 C.ar    1  UNL1       -0.0047
     30 C         138.0710  141.2730  161.1202 C.3     1  UNL1        0.2356
     31 O         137.7282  142.7231  161.2930 O.3     1  UNL1       -0.4404
     32 C         137.7710  143.0379  162.7590 C.2     1  UNL1        0.3413
     33 O         137.4933  144.3736  163.3824 O.2     1  UNL1       -0.2449
@<TRIPOS>BOND
     1    15    16    3
     2    16     9    1
     3     9    10   ar
     4    10    11   ar
     5    11    12   ar
     6    12     8    1
     7     8     7    1
     8     7     1    1
     9     1     2    1
    10     2     3    1
    11     3     4    1
    12     4    22    1
    13    22    23    1
    14    23    24    1
    15    24    25   ar
    16    25    26   ar
    17    26    27   ar
    18    27    28   ar
    19    28    29   ar
    20    28    30    1
    21    30    31    1
    22    31    32    1
    23    32    33    2
    24     4     5    1
    25     5     6    1
    26    12    13   ar
    27    13    14   ar
    28    14    17    1
    29    17    18    1
    30    18    19    1
    31    18    20    1
    32    18    21    1
    33    14     9   ar
    34     6     1    1
    35    29    24   ar
    36    32    27    1
@<TRIPOS>MOLECULE
*****
 33 36 0 0 0
SMALL
GASTEIGER

@<TRIPOS>ATOM
      1 N         137.9952  140.9639  161.1695 N.3     1  UNL1       -0.2700
      2 C         137.4176  140.8096  162.5451 C.3     1  UNL1        0.0897
      3 C         137.4141  141.9730  163.4919 C.3     1  UNL1        0.0897
      4 N         137.9882  143.2908  163.0629 N.3     1  UNL1       -0.2700
      5 C         138.5658  143.4451  161.6873 C.3     1  UNL1        0.0897
      6 C         138.5693  142.2816  160.7405 C.3     1  UNL1        0.0897
      7 C         137.9986  139.8004  160.2226 C.3     1  UNL1        0.0769
      8 C         139.1572  138.8479  160.2092 C.3     1  UNL1        0.0438
      9 C         141.7835  138.4481  163.8414 C.ar    1  UNL1        0.1025
     10 C         142.3379  139.0314  162.5755 C.ar    1  UNL1        0.0130
     11 C         141.4625  139.1646  161.3648 C.ar    1  UNL1       -0.0033
     12 C         140.0326  138.7146  161.4199 C.ar    1  UNL1       -0.0177
     13 C         139.4782  138.1313  162.6858 C.ar    1  UNL1        0.0337
     14 C         140.3537  137.9981  163.8965 C.ar    1  UNL1        0.1560
     15 N         143.5344  138.1817  166.2628 N.1     1  UNL1       -0.1907
     16 C         142.6590  138.3149  165.0521 C.1     1  UNL1        0.1035
     17 O         139.7993  137.4148  165.1624 O.3     1  UNL1       -0.4038
     18 C         138.6466  138.0812  165.8533 C.3     1  UNL1        0.5753
     19 F         137.4940  138.7476  166.5442 F       1  UNL1       -0.1328
     20 F         139.3139  139.4135  165.6815 F       1  UNL1       -0.1328
     21 F         137.9793  136.7489  166.0251 F       1  UNL1       -0.1328
     22 C         137.9847  144.4542  164.0098 C.3     1  UNL1        0.0769
     23 C         139.1005  144.6200  164.9984 C.3     1  UNL1        0.0437
     24 C         140.4073  143.9168  164.7794 C.ar    1  UNL1       -0.0210
     25 C         140.6892  142.6219  165.4819 C.ar    1  UNL1       -0.0040
     26 C         141.9960  141.9188  165.2629 C.ar    1  UNL1        0.0059
     27 C         143.0209  142.5107  164.3413 C.ar    1  UNL1        0.0751
     28 C         142.7390  143.8056  163.6387 C.ar    1  UNL1        0.0272
     29 C         141.4322  144.5087  163.8578 C.ar    1  UNL1       -0.0047
     30 C         143.9321  144.1447  162.7953 C.3     1  UNL1        0.2356
     31 O         144.9515  143.0593  162.9766 O.3     1  UNL1       -0.4404
     32 C         144.3883  142.0494  163.9320 C.2     1  UNL1        0.3413
     33 O         145.0724  140.7980  164.3967 O.2     1  UNL1       -0.2449
@<TRIPOS>BOND
     1    15    16    3
     2    16     9    1
     3     9    10   ar
     4    10    11   ar
     5    11    12   ar
     6    12     8    1
     7     8     7    1
     8     7     1    1
     9     1     2    1
    10     2     3    1
    11     3     4    1
    12     4    22    1
    13    22    23    1
    14    23    24    1
    15    24    25   ar
    16    25    26   ar
    17    26    27   ar
    18    27    28   ar
    19    28    29   ar
    20    28    30    1
    21    30    31    1
    22    31    32    1
    23    32    33    2
    24     4     5    1
    25     5     6    1
    26    12    13   ar
    27    13    14   ar
    28    14    17    1
    29    17    18    1
    30    18    19    1
    31    18    20    1
    32    18    21    1
    33    14     9   ar
    34     6     1    1
    35    29    24   ar
    36    32    27    1
@<TRIPOS>MOLECULE
*****
 33 36 0 0 0
SMALL
GASTEIGER

@<TRIPOS>ATOM
      1 N         142.0619  137.9427  164.1588 N.3     1  UNL1       -0.2700
      2 C         142.5920  138.6928  165.3446 C.3     1  UNL1        0.0897
      3 C         143.7178  139.6690  165.1725 C.3     1  UNL1        0.0897
      4 N         144.3134  139.8951  163.8145 N.3     1  UNL1       -0.2700
      5 C         143.7832  139.1450  162.6286 C.3     1  UNL1        0.0897
      6 C         142.6575  138.1688  162.8008 C.3     1  UNL1        0.0897
      7 C         140.9360  136.9665  164.3309 C.3     1  UNL1        0.0769
      8 C         139.5630  137.4591  164.6800 C.3     1  UNL1        0.0438
      9 C         138.3201  141.6373  163.5630 C.ar    1  UNL1        0.1025
     10 C         137.9942  140.4895  162.6539 C.ar    1  UNL1        0.0130
     11 C         138.4084  139.0968  163.0262 C.ar    1  UNL1       -0.0033
     12 C         139.1487  138.8518  164.3077 C.ar    1  UNL1       -0.0177
     13 C         139.4746  139.9995  165.2168 C.ar    1  UNL1        0.0337
     14 C         139.0602  141.3923  164.8444 C.ar    1  UNL1        0.1560
     15 N         137.4914  144.4228  162.8183 N.1     1  UNL1       -0.1907
     16 C         137.9057  143.0300  163.1906 C.1     1  UNL1        0.1035
     17 O         139.3862  142.5401  165.7535 O.3     1  UNL1       -0.4038
     18 C         140.7784  142.7014  166.2882 C.3     1  UNL1        0.5753
     19 F         142.1705  142.8627  166.8230 F       1  UNL1       -0.1328
     20 F         140.2200  143.0675  167.6314 F       1  UNL1       -0.1328
     21 F         141.3367  142.3352  164.9451 F       1  UNL1       -0.1328
     22 C         145.4392  140.8713  163.6424 C.3     1  UNL1        0.0769
     23 C         145.2671  142.2980  164.0724 C.3     1  UNL1        0.0437
     24 C         144.1369  143.1162  163.5218 C.ar    1  UNL1       -0.0210
     25 C         143.7022  144.3661  164.2281 C.ar    1  UNL1       -0.0040
     26 C         142.5721  145.1843  163.6774 C.ar    1  UNL1        0.0059
     27 C         141.8766  144.7526  162.4205 C.ar    1  UNL1        0.0751
     28 C         142.3112  143.5027  161.7142 C.ar    1  UNL1        0.0272
     29 C         143.4414  142.6846  162.2649 C.ar    1  UNL1       -0.0047
     30 C         141.4430  143.3288  160.5034 C.3     1  UNL1        0.2356
     31 O         140.4718  144.4711  160.4614 O.3     1  UNL1       -0.4404
     32 C         140.7397  145.3511  161.6462 C.2     1  UNL1        0.3413
     33 O         140.0006  146.6088  161.9955 O.2     1  UNL1       -0.2449
@<TRIPOS>BOND
     1    15    16    3
     2    16     9    1
     3     9    10   ar
     4    10    11   ar
     5    11    12   ar
     6    12     8    1
     7     8     7    1
     8     7     1    1
     9     1     2    1
    10     2     3    1
    11     3     4    1
    12     4    22    1
    13    22    23    1
    14    23    24    1
    15    24    25   ar
    16    25    26   ar
    17    26    27   ar
    18    27    28   ar
    19    28    29   ar
    20    28    30    1
    21    30    31    1
    22    31    32    1
    23    32    33    2
    24     4     5    1
    25     5     6    1
    26    12    13   ar
    27    13    14   ar
    28    14    17    1
    29    17    18    1
    30    18    19    1
    31    18    20    1
    32    18    21    1
    33    14     9   ar
    34     6     1    1
    35    29    24   ar
    36    32    27    1
@<TRIPOS>MOLECULE
*****
 33 36 0 0 0
SMALL
GASTEIGER

@<TRIPOS>ATOM
      1 N         139.1163  142.5020  161.3276 N.3     1  UNL1       -0.2700
      2 C         138.0763  142.8867  162.3377 C.3     1  UNL1        0.0897
      3 C         137.7654  141.9675  163.4814 C.3     1  UNL1        0.0897
      4 N         138.4946  140.6635  163.6152 N.3     1  UNL1       -0.2700
      5 C         139.5347  140.2788  162.6052 C.3     1  UNL1        0.0897
      6 C         139.8456  141.1980  161.4614 C.3     1  UNL1        0.0897
      7 C         139.4273  143.4213  160.1838 C.3     1  UNL1        0.0769
      8 C         140.4942  144.4655  160.3294 C.3     1  UNL1        0.0438
      9 C         143.3674  144.2792  163.7877 C.ar    1  UNL1        0.1025
     10 C         142.1189  145.1039  163.8935 C.ar    1  UNL1        0.0130
     11 C         141.1612  145.1660  162.7407 C.ar    1  UNL1       -0.0033
     12 C         141.4519  144.4034  161.4821 C.ar    1  UNL1       -0.0177
     13 C         142.7005  143.5787  161.3764 C.ar    1  UNL1        0.0337
     14 C         143.6582  143.5167  162.5292 C.ar    1  UNL1        0.1560
     15 N         145.2829  144.1551  166.0933 N.1     1  UNL1       -0.1907
     16 C         144.3252  144.2172  164.9405 C.1     1  UNL1        0.1035
     17 O         144.9067  142.6920  162.4234 O.3     1  UNL1       -0.4038
     18 C         145.0344  141.4203  163.2087 C.3     1  UNL1        0.5753
     19 F         145.1620  140.1487  163.9939 F       1  UNL1       -0.1328
     20 F         143.6767  140.9922  162.7360 F       1  UNL1       -0.1328
     21 F         146.3920  141.8485  163.6814 F       1  UNL1       -0.1328
     22 C         138.1837  139.7442  164.7591 C.3     1  UNL1        0.0769
     23 C         139.2503  139.4002  165.7560 C.3     1  UNL1        0.0437
     24 C         139.6053  140.3736  166.8407 C.ar    1  UNL1       -0.0210
     25 C         139.9892  141.7805  166.4896 C.ar    1  UNL1       -0.0040
     26 C         140.3441  142.7539  167.5742 C.ar    1  UNL1        0.0059
     27 C         140.3152  142.3204  169.0099 C.ar    1  UNL1        0.0751
     28 C         139.9313  140.9135  169.3610 C.ar    1  UNL1        0.0272
     29 C         139.5764  139.9401  168.2764 C.ar    1  UNL1       -0.0047
     30 C         139.9918  140.7753  170.8534 C.3     1  UNL1        0.2356
     31 O         140.4130  142.0967  171.4247 O.3     1  UNL1       -0.4404
     32 C         140.6129  143.0517  170.2854 C.2     1  UNL1        0.3413
     33 O         141.0362  144.4861  170.4011 O.2     1  UNL1       -0.2449
@<TRIPOS>BOND
     1    15    16    3
     2    16     9    1
     3     9    10   ar
     4    10    11   ar
     5    11    12   ar
     6    12     8    1
     7     8     7    1
     8     7     1    1
     9     1     2    1
    10     2     3    1
    11     3     4    1
    12     4    22    1
    13    22    23    1
    14    23    24    1
    15    24    25   ar
    16    25    26   ar
    17    26    27   ar
    18    27    28   ar
    19    28    29   ar
    20    28    30    1
    21    30    31    1
    22    31    32    1
    23    32    33    2
    24     4     5    1
    25     5     6    1
    26    12    13   ar
    27    13    14   ar
    28    14    17    1
    29    17    18    1
    30    18    19    1
    31    18    20    1
    32    18    21    1
    33    14     9   ar
    34     6     1    1
    35    29    24   ar
    36    32    27    1
@<TRIPOS>MOLECULE
*****
 33 36 0 0 0
SMALL
GASTEIGER

@<TRIPOS>ATOM
      1 N         144.2115  139.2679  162.1130 N.3     1  UNL1       -0.2700
      2 C         144.5700  139.2742  163.5694 C.3     1  UNL1        0.0897
      3 C         144.9058  140.5662  164.2535 C.3     1  UNL1        0.0897
      4 N         144.8830  141.8518  163.4811 N.3     1  UNL1       -0.2700
      5 C         144.5245  141.8455  162.0246 C.3     1  UNL1        0.0897
      6 C         144.1887  140.5535  161.3406 C.3     1  UNL1        0.0897
      7 C         143.8757  137.9758  161.4288 C.3     1  UNL1        0.0769
      8 C         142.4418  137.5853  161.2257 C.3     1  UNL1        0.0438
      9 C         139.4523  138.2005  164.5324 C.ar    1  UNL1        0.1025
     10 C         140.7100  137.4258  164.7930 C.ar    1  UNL1        0.0130
     11 C         141.7065  137.2207  163.6908 C.ar    1  UNL1       -0.0033
     12 C         141.4453  137.7904  162.3279 C.ar    1  UNL1       -0.0177
     13 C         140.1876  138.5652  162.0674 C.ar    1  UNL1        0.0337
     14 C         139.1911  138.7702  163.1697 C.ar    1  UNL1        0.1560
     15 N         137.4594  138.6106  166.7370 N.1     1  UNL1       -0.1907
     16 C         138.4558  138.4056  165.6347 C.1     1  UNL1        0.1035
     17 O         137.9333  139.5450  162.9091 O.3     1  UNL1       -0.4038
     18 C         137.4122  139.6803  161.5090 C.3     1  UNL1        0.5753
     19 F         136.8912  139.8155  160.1090 F       1  UNL1       -0.1328
     20 F         137.0030  138.2373  161.5220 F       1  UNL1       -0.1328
     21 F         137.8215  141.1233  161.4961 F       1  UNL1       -0.1328
     22 C         145.2188  143.1439  164.1652 C.3     1  UNL1        0.0769
     23 C         144.1909  143.8329  165.0129 C.3     1  UNL1        0.0437
     24 C         142.7699  143.9256  164.5416 C.ar    1  UNL1       -0.0210
     25 C         141.7390  142.9760  165.0759 C.ar    1  UNL1       -0.0040
     26 C         140.3180  143.0688  164.6046 C.ar    1  UNL1        0.0059
     27 C         139.9279  144.1111  163.5989 C.ar    1  UNL1        0.0751
     28 C         140.9588  145.0607  163.0646 C.ar    1  UNL1        0.0272
     29 C         142.3798  144.9680  163.5360 C.ar    1  UNL1       -0.0047
     30 C         140.2829  145.9774  162.0885 C.3     1  UNL1        0.2356
     31 O         138.8343  145.5944  162.0196 O.3     1  UNL1       -0.4404
     32 C         138.6148  144.4410  162.9531 C.2     1  UNL1        0.3413
     33 O         137.3113  143.7403  163.1977 O.2     1  UNL1       -0.2449
@<TRIPOS>BOND
     1    15    16    3
     2    16     9    1
     3     9    10   ar
     4    10    11   ar
     5    11    12   ar
     6    12     8    1
     7     8     7    1
     8     7     1    1
     9     1     2    1
    10     2     3    1
    11     3     4    1
    12     4    22    1
    13    22    23    1
    14    23    24    1
    15    24    25   ar
    16    25    26   ar
    17    26    27   ar
    18    27    28   ar
    19    28    29   ar
    20    28    30    1
    21    30    31    1
    22    31    32    1
    23    32    33    2
    24     4     5    1
    25     5     6    1
    26    12    13   ar
    27    13    14   ar
    28    14    17    1
    29    17    18    1
    30    18    19    1
    31    18    20    1
    32    18    21    1
    33    14     9   ar
    34     6     1    1
    35    29    24   ar
    36    32    27    1
@<TRIPOS>MOLECULE
*****
 33 36 0 0 0
SMALL
GASTEIGER

@<TRIPOS>ATOM
      1 N         140.4993  140.1115  166.5354 N.3     1  UNL1       -0.2700
      2 C         141.8180  139.5291  166.1211 C.3     1  UNL1        0.0897
      3 C         142.9868  140.4315  165.8579 C.3     1  UNL1        0.0897
      4 N         142.8370  141.9163  166.0089 N.3     1  UNL1       -0.2700
      5 C         141.5183  142.4988  166.4232 C.3     1  UNL1        0.0897
      6 C         140.3494  141.5964  166.6865 C.3     1  UNL1        0.0897
      7 C         139.3303  139.2091  166.7987 C.3     1  UNL1        0.0769
      8 C         138.9255  138.1886  165.7767 C.3     1  UNL1        0.0438
      9 C         138.1701  139.4427  161.5215 C.ar    1  UNL1        0.1025
     10 C         138.8298  138.1267  161.8097 C.ar    1  UNL1        0.0130
     11 C         139.0815  137.7086  163.2281 C.ar    1  UNL1       -0.0033
     12 C         138.6737  138.6066  164.3583 C.ar    1  UNL1       -0.0177
     13 C         138.0141  139.9226  164.0701 C.ar    1  UNL1        0.0337
     14 C         137.7623  140.3406  162.6517 C.ar    1  UNL1        0.1560
     15 N         137.6666  140.2787  158.6847 N.1     1  UNL1       -0.1907
     16 C         137.9184  139.8607  160.1031 C.1     1  UNL1        0.1035
     17 O         137.1027  141.6566  162.3635 O.3     1  UNL1       -0.4038
     18 C         137.7852  142.9370  162.7444 C.3     1  UNL1        0.5753
     19 F         138.4677  144.2173  163.1252 F       1  UNL1       -0.1328
     20 F         138.5316  142.9262  161.4433 F       1  UNL1       -0.1328
     21 F         137.0388  142.9478  164.0454 F       1  UNL1       -0.1328
     22 C         144.0060  142.8188  165.7456 C.3     1  UNL1        0.0769
     23 C         144.3531  143.2052  164.3385 C.3     1  UNL1        0.0437
     24 C         143.3136  143.8261  163.4530 C.ar    1  UNL1       -0.0210
     25 C         142.4601  144.9461  163.9698 C.ar    1  UNL1       -0.0040
     26 C         141.4207  145.5669  163.0843 C.ar    1  UNL1        0.0059
     27 C         141.2348  145.0678  161.6821 C.ar    1  UNL1        0.0751
     28 C         142.0883  143.9478  161.1653 C.ar    1  UNL1        0.0272
     29 C         143.1277  143.3270  162.0508 C.ar    1  UNL1       -0.0047
     30 C         141.6792  143.6686  159.7494 C.3     1  UNL1        0.2356
     31 O         140.5728  144.6160  159.3912 O.3     1  UNL1       -0.4404
     32 C         140.2981  145.4808  160.5856 C.2     1  UNL1        0.3413
     33 O         139.2677  146.5677  160.6690 O.2     1  UNL1       -0.2449
@<TRIPOS>BOND
     1    15    16    3
     2    16     9    1
     3     9    10   ar
     4    10    11   ar
     5    11    12   ar
     6    12     8    1
     7     8     7    1
     8     7     1    1
     9     1     2    1
    10     2     3    1
    11     3     4    1
    12     4    22    1
    13    22    23    1
    14    23    24    1
    15    24    25   ar
    16    25    26   ar
    17    26    27   ar
    18    27    28   ar
    19    28    29   ar
    20    28    30    1
    21    30    31    1
    22    31    32    1
    23    32    33    2
    24     4     5    1
    25     5     6    1
    26    12    13   ar
    27    13    14   ar
    28    14    17    1
    29    17    18    1
    30    18    19    1
    31    18    20    1
    32    18    21    1
    33    14     9   ar
    34     6     1    1
    35    29    24   ar
    36    32    27    1
@<TRIPOS>MOLECULE
*****
 33 36 0 0 0
SMALL
GASTEIGER

@<TRIPOS>ATOM
      1 N         140.0093  138.7762  161.6493 N.3     1  UNL1       -0.2700
      2 C         141.1591  139.7381  161.7012 C.3     1  UNL1        0.0897
      3 C         142.1869  139.6204  162.7873 C.3     1  UNL1        0.0897
      4 N         142.0649  138.5408  163.8215 N.3     1  UNL1       -0.2700
      5 C         140.9152  137.5789  163.7696 C.3     1  UNL1        0.0897
      6 C         139.8874  137.6966  162.6835 C.3     1  UNL1        0.0897
      7 C         138.9814  138.8939  160.5631 C.3     1  UNL1        0.0769
      8 C         137.8493  139.8677  160.7043 C.3     1  UNL1        0.0438
      9 C         138.0677  143.1408  163.7847 C.ar    1  UNL1        0.1025
     10 C         137.6410  141.7600  164.1864 C.ar    1  UNL1        0.0130
     11 C         137.5682  140.6690  163.1597 C.ar    1  UNL1       -0.0033
     12 C         137.9221  140.9587  161.7310 C.ar    1  UNL1       -0.0177
     13 C         138.3488  142.3395  161.3293 C.ar    1  UNL1        0.0337
     14 C         138.4216  143.4305  162.3561 C.ar    1  UNL1        0.1560
     15 N         138.2133  145.3228  165.8384 N.1     1  UNL1       -0.1907
     16 C         138.1405  144.2318  164.8115 C.1     1  UNL1        0.1035
     17 O         138.8483  144.8113  161.9544 O.3     1  UNL1       -0.4038
     18 C         140.2208  145.3041  162.3056 C.3     1  UNL1        0.5753
     19 F         141.5933  145.7969  162.6568 F       1  UNL1       -0.1328
     20 F         140.6765  143.8896  162.5093 F       1  UNL1       -0.1328
     21 F         139.7651  146.7186  162.1019 F       1  UNL1       -0.1328
     22 C         143.0928  138.4231  164.9077 C.3     1  UNL1        0.0769
     23 C         143.2747  139.5399  165.8924 C.3     1  UNL1        0.0437
     24 C         142.2559  139.7623  166.9707 C.ar    1  UNL1       -0.0210
     25 C         140.7934  139.7280  166.6394 C.ar    1  UNL1       -0.0040
     26 C         139.7748  139.9505  167.7177 C.ar    1  UNL1        0.0059
     27 C         140.2186  140.2073  169.1273 C.ar    1  UNL1        0.0751
     28 C         141.6811  140.2416  169.4586 C.ar    1  UNL1        0.0272
     29 C         142.6998  140.0191  168.3803 C.ar    1  UNL1       -0.0047
     30 C         141.8174  140.5154  170.9271 C.3     1  UNL1        0.2356
     31 O         140.4391  140.6503  171.5034 O.3     1  UNL1       -0.4404
     32 C         139.4510  140.4599  170.3911 C.2     1  UNL1        0.3413
     33 O         137.9574  140.5127  170.5198 O.2     1  UNL1       -0.2449
@<TRIPOS>BOND
     1    15    16    3
     2    16     9    1
     3     9    10   ar
     4    10    11   ar
     5    11    12   ar
     6    12     8    1
     7     8     7    1
     8     7     1    1
     9     1     2    1
    10     2     3    1
    11     3     4    1
    12     4    22    1
    13    22    23    1
    14    23    24    1
    15    24    25   ar
    16    25    26   ar
    17    26    27   ar
    18    27    28   ar
    19    28    29   ar
    20    28    30    1
    21    30    31    1
    22    31    32    1
    23    32    33    2
    24     4     5    1
    25     5     6    1
    26    12    13   ar
    27    13    14   ar
    28    14    17    1
    29    17    18    1
    30    18    19    1
    31    18    20    1
    32    18    21    1
    33    14     9   ar
    34     6     1    1
    35    29    24   ar
    36    32    27    1
@<TRIPOS>MOLECULE
*****
 33 36 0 0 0
SMALL
GASTEIGER

@<TRIPOS>ATOM
      1 N         141.2184  145.0143  161.6448 N.3     1  UNL1       -0.2700
      2 C         142.1744  145.1864  162.7878 C.3     1  UNL1        0.0897
      3 C         143.4778  144.4441  162.7936 C.3     1  UNL1        0.0897
      4 N         143.8252  143.5296  161.6565 N.3     1  UNL1       -0.2700
      5 C         142.8692  143.3575  160.5135 C.3     1  UNL1        0.0897
      6 C         141.5658  144.0998  160.5077 C.3     1  UNL1        0.0897
      7 C         139.9149  145.7566  161.6390 C.3     1  UNL1        0.0769
      8 C         138.9332  145.5571  162.7553 C.3     1  UNL1        0.0438
      9 C         138.4427  141.4912  164.6202 C.ar    1  UNL1        0.1025
     10 C         137.7530  141.8114  163.3272 C.ar    1  UNL1        0.0130
     11 C         137.9165  143.1667  162.7056 C.ar    1  UNL1       -0.0033
     12 C         138.7697  144.2018  163.3770 C.ar    1  UNL1       -0.0177
     13 C         139.4594  143.8815  164.6699 C.ar    1  UNL1        0.0337
     14 C         139.2958  142.5262  165.2916 C.ar    1  UNL1        0.1560
     15 N         138.1156  138.7805  165.8634 N.1     1  UNL1       -0.1907
     16 C         138.2791  140.1358  165.2418 C.1     1  UNL1        0.1035
     17 O         139.9855  142.2059  166.5845 O.3     1  UNL1       -0.4038
     18 C         141.4801  142.2929  166.6789 C.3     1  UNL1        0.5753
     19 F         142.9746  142.3797  166.7733 F       1  UNL1       -0.1328
     20 F         141.5998  141.7449  165.2878 F       1  UNL1       -0.1328
     21 F         141.3604  142.8408  168.0701 F       1  UNL1       -0.1328
     22 C         145.1287  142.7873  161.6623 C.3     1  UNL1        0.0769
     23 C         145.4212  141.7939  162.7474 C.3     1  UNL1        0.0437
     24 C         144.4472  140.6901  163.0362 C.ar    1  UNL1       -0.0210
     25 C         144.2833  140.1823  164.4380 C.ar    1  UNL1       -0.0040
     26 C         143.3094  139.0786  164.7267 C.ar    1  UNL1        0.0059
     27 C         142.4995  138.4828  163.6136 C.ar    1  UNL1        0.0751
     28 C         142.6634  138.9906  162.2118 C.ar    1  UNL1        0.0272
     29 C         143.6373  140.0943  161.9231 C.ar    1  UNL1       -0.0047
     30 C         141.7346  138.2143  161.3260 C.3     1  UNL1        0.2356
     31 O         140.9966  137.2267  162.1804 O.3     1  UNL1       -0.4404
     32 C         141.4693  137.3926  163.5942 C.2     1  UNL1        0.3413
     33 O         140.9951  136.6064  164.7804 O.2     1  UNL1       -0.2449
@<TRIPOS>BOND
     1    15    16    3
     2    16     9    1
     3     9    10   ar
     4    10    11   ar
     5    11    12   ar
     6    12     8    1
     7     8     7    1
     8     7     1    1
     9     1     2    1
    10     2     3    1
    11     3     4    1
    12     4    22    1
    13    22    23    1
    14    23    24    1
    15    24    25   ar
    16    25    26   ar
    17    26    27   ar
    18    27    28   ar
    19    28    29   ar
    20    28    30    1
    21    30    31    1
    22    31    32    1
    23    32    33    2
    24     4     5    1
    25     5     6    1
    26    12    13   ar
    27    13    14   ar
    28    14    17    1
    29    17    18    1
    30    18    19    1
    31    18    20    1
    32    18    21    1
    33    14     9   ar
    34     6     1    1
    35    29    24   ar
    36    32    27    1
