@<TRIPOS>MOLECULE
*****
 33 37 0 0 0
SMALL
GASTEIGER

@<TRIPOS>ATOM
      1 N         144.3400  141.0664  161.3944 N.pl3   1  UNL1       -0.2824
      2 H         145.3186  141.0028  161.3069 H       1  UNL1        0.1551
      3 C         140.2977  144.4482  160.5899 C.ar    1  UNL1        0.1539
      4 N         140.0130  145.3156  159.3997 N.ar    1  UNL1       -0.2188
      5 C         141.0986  145.0877  158.3899 C.ar    1  UNL1        0.1830
      6 N         142.0542  144.0796  158.9561 N.ar    1  UNL1       -0.2862
      7 C         143.3111  143.4705  158.4091 C.ar    1  UNL1        0.0828
      8 C         144.0730  142.4661  159.2219 C.ar    1  UNL1        0.0338
      9 C         143.5780  142.0709  160.5816 C.ar    1  UNL1        0.0535
     10 C         142.3211  142.6800  161.1285 C.ar    1  UNL1        0.0340
     11 C         141.5592  143.6844  160.3158 C.ar    1  UNL1        0.0890
     12 C         138.6758  144.9462  165.5901 C.3     1  UNL1        0.0967
     13 C         138.7213  144.5890  164.1341 C.ar    1  UNL1        0.2270
     14 N         137.6550  143.8602  163.3712 N.ar    1  UNL1       -0.1113
     15 N         138.1157  143.7188  161.9508 N.ar    1  UNL1       -0.1055
     16 C         139.4668  144.3602  161.8357 C.ar    1  UNL1        0.2688
     17 O         139.8410  144.8980  163.1849 O.2     1  UNL1       -0.4182
     18 C         143.6111  140.1589  162.3405 C.ar    1  UNL1        0.2207
     19 N         142.9927  138.8892  161.8351 N.ar    1  UNL1       -0.2120
     20 C         142.2637  137.9817  162.7812 C.ar    1  UNL1        0.1034
     21 C         142.1532  138.3439  164.2326 C.ar    1  UNL1        0.0415
     22 C         142.7716  139.6136  164.7380 C.ar    1  UNL1        0.1050
     23 N         143.5006  140.5211  163.7919 N.ar    1  UNL1       -0.2120
     24 C         142.6611  139.9758  166.1893 C.ar    1  UNL1        0.1198
     25 C         142.4445  141.3541  166.7401 C.ar    1  UNL1        0.0381
     26 C         142.3974  141.2535  168.2360 C.ar    1  UNL1        0.0734
     27 N         142.5848  139.8129  168.6097 N.ar    1  UNL1       -0.2515
     28 C         142.6056  139.2591  170.0036 C.3     1  UNL1        0.1534
     29 N         142.7479  139.0233  167.3448 N.ar    1  UNL1       -0.1680
     30 C         142.1978  142.3932  169.1905 C.3     1  UNL1        0.1184
     31 N         140.8172  142.7462  169.6589 N.3     1  UNL1       -0.2652
     32 C         140.4784  144.1696  169.9893 C.3     1  UNL1        0.0900
     33 C         139.7754  141.6758  169.7968 C.3     1  UNL1        0.0900
@<TRIPOS>BOND
     1    12    13    1
     2    13    14   ar
     3    14    15   ar
     4    15    16   ar
     5    16     3    1
     6     3     4   ar
     7     4     5   ar
     8     5     6   ar
     9     6     7   ar
    10     7     8   ar
    11     8     9   ar
    12     9     1    1
    13     1    18    1
    14    18    19   ar
    15    19    20   ar
    16    20    21   ar
    17    21    22   ar
    18    22    24    1
    19    24    25   ar
    20    25    26   ar
    21    26    30    1
    22    30    31    1
    23    31    32    1
    24    31    33    1
    25    26    27   ar
    26    27    28    1
    27    27    29   ar
    28    22    23   ar
    29     9    10   ar
    30    10    11   ar
    31    16    17   ar
    32    17    13   ar
    33    11     3   ar
    34    11     6   ar
    35    23    18   ar
    36    29    24   ar
    37     1     2    1
@<TRIPOS>MOLECULE
*****
 33 37 0 0 0
SMALL
GASTEIGER

@<TRIPOS>ATOM
      1 N         142.4572  138.6060  161.8059 N.pl3   1  UNL1       -0.2824
      2 H         143.1157  137.8745  161.8286 H       1  UNL1        0.1551
      3 C         141.6407  143.6631  160.3285 C.ar    1  UNL1        0.1539
      4 N         142.2397  144.4217  159.1814 N.ar    1  UNL1       -0.2188
      5 C         143.1688  143.4986  158.4502 C.ar    1  UNL1        0.1830
      6 N         143.1441  142.1697  159.1454 N.ar    1  UNL1       -0.2862
      7 C         143.8596  140.8801  158.8713 C.ar    1  UNL1        0.0828
      8 C         143.6306  139.6923  159.7581 C.ar    1  UNL1        0.0338
      9 C         142.6862  139.7940  160.9190 C.ar    1  UNL1        0.0535
     10 C         141.9707  141.0835  161.1931 C.ar    1  UNL1        0.0340
     11 C         142.1997  142.2714  160.3063 C.ar    1  UNL1        0.0890
     12 C         139.1318  144.6924  164.8592 C.3     1  UNL1        0.0967
     13 C         139.5025  144.6749  163.4059 C.ar    1  UNL1        0.2270
     14 N         138.7774  145.3867  162.3023 N.ar    1  UNL1       -0.1113
     15 N         139.4902  145.0943  161.0153 N.ar    1  UNL1       -0.1055
     16 C         140.6557  144.2018  161.3233 C.ar    1  UNL1        0.2688
     17 O         140.6633  143.9427  162.8007 O.2     1  UNL1       -0.4182
     18 C         141.2251  138.5327  162.6581 C.ar    1  UNL1        0.2207
     19 N         140.0204  137.7829  162.1719 N.ar    1  UNL1       -0.2120
     20 C         138.7881  137.7096  163.0242 C.ar    1  UNL1        0.1034
     21 C         138.7607  138.3860  164.3627 C.ar    1  UNL1        0.0415
     22 C         139.9654  139.1358  164.8489 C.ar    1  UNL1        0.1050
     23 N         141.1976  139.2092  163.9967 N.ar    1  UNL1       -0.2120
     24 C         139.9380  139.8123  166.1874 C.ar    1  UNL1        0.1198
     25 C         140.7156  141.0356  166.5732 C.ar    1  UNL1        0.0381
     26 C         140.3863  141.3636  167.9993 C.ar    1  UNL1        0.0734
     27 N         139.4051  140.3430  168.4950 N.ar    1  UNL1       -0.2515
     28 C         138.8062  140.2903  169.8693 C.3     1  UNL1        0.1534
     29 N         139.1281  139.3842  167.3752 N.ar    1  UNL1       -0.1680
     30 C         140.9408  142.5108  168.7909 C.3     1  UNL1        0.1184
     31 N         142.0537  142.2784  169.7693 N.3     1  UNL1       -0.2652
     32 C         143.4786  142.2887  169.3008 C.3     1  UNL1        0.0900
     33 C         141.7417  142.0358  171.2164 C.3     1  UNL1        0.0900
@<TRIPOS>BOND
     1    12    13    1
     2    13    14   ar
     3    14    15   ar
     4    15    16   ar
     5    16     3    1
     6     3     4   ar
     7     4     5   ar
     8     5     6   ar
     9     6     7   ar
    10     7     8   ar
    11     8     9   ar
    12     9     1    1
    13     1    18    1
    14    18    19   ar
    15    19    20   ar
    16    20    21   ar
    17    21    22   ar
    18    22    24    1
    19    24    25   ar
    20    25    26   ar
    21    26    30    1
    22    30    31    1
    23    31    32    1
    24    31    33    1
    25    26    27   ar
    26    27    28    1
    27    27    29   ar
    28    22    23   ar
    29     9    10   ar
    30    10    11   ar
    31    16    17   ar
    32    17    13   ar
    33    11     3   ar
    34    11     6   ar
    35    23    18   ar
    36    29    24   ar
    37     1     2    1
@<TRIPOS>MOLECULE
*****
 33 37 0 0 0
SMALL
GASTEIGER

@<TRIPOS>ATOM
      1 N         137.4904  140.8390  161.7760 N.pl3   1  UNL1       -0.2824
      2 H         136.5138  140.9134  161.6758 H       1  UNL1        0.1551
      3 C         141.8333  143.8288  160.9861 C.ar    1  UNL1        0.1539
      4 N         142.2909  144.5202  159.7360 N.ar    1  UNL1       -0.2188
      5 C         141.2886  144.2371  158.6565 C.ar    1  UNL1        0.1830
      6 N         140.2116  143.3709  159.2394 N.ar    1  UNL1       -0.2862
      7 C         138.9679  142.7793  158.6451 C.ar    1  UNL1        0.0828
      8 C         138.0609  141.9354  159.4906 C.ar    1  UNL1        0.0338
      9 C         138.3975  141.6830  160.9304 C.ar    1  UNL1        0.0535
     10 C         139.6412  142.2746  161.5247 C.ar    1  UNL1        0.0340
     11 C         140.5483  143.1185  160.6792 C.ar    1  UNL1        0.0890
     12 C         143.3466  142.5652  165.8845 C.3     1  UNL1        0.0967
     13 C         143.2328  143.2641  164.5622 C.ar    1  UNL1        0.2270
     14 N         144.0080  144.4753  164.1354 N.ar    1  UNL1       -0.1113
     15 N         143.5781  144.8342  162.7439 N.ar    1  UNL1       -0.1055
     16 C         142.5372  143.8449  162.3106 C.ar    1  UNL1        0.2688
     17 O         142.3238  142.8746  163.4343 O.2     1  UNL1       -0.4182
     18 C         138.0712  139.8817  162.7740 C.ar    1  UNL1        0.2207
     19 N         138.3289  138.4564  162.3841 N.ar    1  UNL1       -0.2120
     20 C         138.9097  137.4990  163.3822 C.ar    1  UNL1        0.1034
     21 C         139.2328  137.9670  164.7702 C.ar    1  UNL1        0.0415
     22 C         138.9751  139.3923  165.1602 C.ar    1  UNL1        0.1050
     23 N         138.3943  140.3496  164.1621 N.ar    1  UNL1       -0.2120
     24 C         139.2981  139.8603  166.5481 C.ar    1  UNL1        0.1198
     25 C         140.3483  140.8657  166.9176 C.ar    1  UNL1        0.0381
     26 C         140.3270  141.0319  168.4082 C.ar    1  UNL1        0.0734
     27 N         139.2636  140.1291  168.9600 N.ar    1  UNL1       -0.2515
     28 C         138.9000  139.9772  170.4073 C.3     1  UNL1        0.1534
     29 N         138.6278  139.4051  167.8104 N.ar    1  UNL1       -0.1680
     30 C         141.2133  141.9410  169.2067 C.3     1  UNL1        0.1184
     31 N         142.5409  141.4490  169.7022 N.3     1  UNL1       -0.2652
     32 C         143.7183  142.3776  169.7403 C.3     1  UNL1        0.0900
     33 C         142.6911  140.0283  170.1595 C.3     1  UNL1        0.0900
@<TRIPOS>BOND
     1    12    13    1
     2    13    14   ar
     3    14    15   ar
     4    15    16   ar
     5    16     3    1
     6     3     4   ar
     7     4     5   ar
     8     5     6   ar
     9     6     7   ar
    10     7     8   ar
    11     8     9   ar
    12     9     1    1
    13     1    18    1
    14    18    19   ar
    15    19    20   ar
    16    20    21   ar
    17    21    22   ar
    18    22    24    1
    19    24    25   ar
    20    25    26   ar
    21    26    30    1
    22    30    31    1
    23    31    32    1
    24    31    33    1
    25    26    27   ar
    26    27    28    1
    27    27    29   ar
    28    22    23   ar
    29     9    10   ar
    30    10    11   ar
    31    16    17   ar
    32    17    13   ar
    33    11     3   ar
    34    11     6   ar
    35    23    18   ar
    36    29    24   ar
    37     1     2    1
@<TRIPOS>MOLECULE
*****
 33 37 0 0 0
SMALL
GASTEIGER

@<TRIPOS>ATOM
      1 N         142.6035  144.8159  161.7642 N.pl3   1  UNL1       -0.2824
      2 H         142.7694  145.7790  161.8827 H       1  UNL1        0.1551
      3 C         139.1945  141.2149  159.8059 C.ar    1  UNL1        0.1539
      4 N         138.2829  141.3230  158.6196 N.ar    1  UNL1       -0.2188
      5 C         138.4722  142.6812  158.0119 C.ar    1  UNL1        0.1830
      6 N         139.5008  143.4125  158.8225 N.ar    1  UNL1       -0.2862
      7 C         140.0886  144.7865  158.6943 C.ar    1  UNL1        0.0828
      8 C         141.1228  145.2543  159.6748 C.ar    1  UNL1        0.0338
      9 C         141.5692  144.3480  160.7836 C.ar    1  UNL1        0.0535
     10 C         140.9814  142.9740  160.9119 C.ar    1  UNL1        0.0340
     11 C         139.9472  142.5063  159.9313 C.ar    1  UNL1        0.0890
     12 C         139.0140  138.0914  164.0593 C.3     1  UNL1        0.0967
     13 C         139.2467  138.5886  162.6635 C.ar    1  UNL1        0.2270
     14 N         139.8287  137.7961  161.5307 N.ar    1  UNL1       -0.1113
     15 N         139.8799  138.6834  160.3224 N.ar    1  UNL1       -0.1055
     16 C         139.3296  140.0244  160.7084 C.ar    1  UNL1        0.2688
     17 O         138.9383  139.9658  162.1552 O.2     1  UNL1       -0.4182
     18 C         143.3849  143.8163  162.5642 C.ar    1  UNL1        0.2207
     19 N         144.6121  143.1822  161.9795 N.ar    1  UNL1       -0.2120
     20 C         145.3936  142.1825  162.7796 C.ar    1  UNL1        0.1034
     21 C         144.9478  141.8169  164.1644 C.ar    1  UNL1        0.0415
     22 C         143.7206  142.4510  164.7491 C.ar    1  UNL1        0.1050
     23 N         142.9391  143.4506  163.9491 N.ar    1  UNL1       -0.2120
     24 C         143.2748  142.0854  166.1338 C.ar    1  UNL1        0.1198
     25 C         142.3779  140.9394  166.4976 C.ar    1  UNL1        0.0381
     26 C         142.1964  140.9473  167.9866 C.ar    1  UNL1        0.0734
     27 N         142.9811  142.0983  168.5430 N.ar    1  UNL1       -0.2515
     28 C         143.0817  142.4791  169.9904 C.3     1  UNL1        0.1534
     29 N         143.6476  142.8016  167.3979 N.ar    1  UNL1       -0.1680
     30 C         141.3745  139.9751  168.7798 C.3     1  UNL1        0.1184
     31 N         139.8776  140.0698  168.7631 N.3     1  UNL1       -0.2652
     32 C         139.1121  139.6353  167.5485 C.3     1  UNL1        0.0900
     33 C         139.1462  140.5989  169.9611 C.3     1  UNL1        0.0900
@<TRIPOS>BOND
     1    12    13    1
     2    13    14   ar
     3    14    15   ar
     4    15    16   ar
     5    16     3    1
     6     3     4   ar
     7     4     5   ar
     8     5     6   ar
     9     6     7   ar
    10     7     8   ar
    11     8     9   ar
    12     9     1    1
    13     1    18    1
    14    18    19   ar
    15    19    20   ar
    16    20    21   ar
    17    21    22   ar
    18    22    24    1
    19    24    25   ar
    20    25    26   ar
    21    26    30    1
    22    30    31    1
    23    31    32    1
    24    31    33    1
    25    26    27   ar
    26    27    28    1
    27    27    29   ar
    28    22    23   ar
    29     9    10   ar
    30    10    11   ar
    31    16    17   ar
    32    17    13   ar
    33    11     3   ar
    34    11     6   ar
    35    23    18   ar
    36    29    24   ar
    37     1     2    1
@<TRIPOS>MOLECULE
*****
 33 37 0 0 0
SMALL
GASTEIGER

@<TRIPOS>ATOM
      1 N         144.4182  141.2931  161.0625 N.pl3   1  UNL1       -0.2824
      2 H         145.3438  141.0530  160.8280 H       1  UNL1        0.1551
      3 C         139.2314  140.4241  160.1877 C.ar    1  UNL1        0.1539
      4 N         138.5775  139.6085  159.1120 N.ar    1  UNL1       -0.2188
      5 C         139.6583  139.0261  158.2502 C.ar    1  UNL1        0.1830
      6 N         140.9802  139.4817  158.7934 N.ar    1  UNL1       -0.2862
      7 C         142.3901  139.2215  158.3523 C.ar    1  UNL1        0.0828
      8 C         143.5360  139.8253  159.1087 C.ar    1  UNL1        0.0338
      9 C         143.2722  140.6893  160.3061 C.ar    1  UNL1        0.0535
     10 C         141.8623  140.9495  160.7472 C.ar    1  UNL1        0.0340
     11 C         140.7164  140.3457  159.9908 C.ar    1  UNL1        0.0890
     12 C         138.0111  144.1290  163.7464 C.3     1  UNL1        0.0967
     13 C         137.9635  142.8875  162.9061 C.ar    1  UNL1        0.2270
     14 N         136.9096  141.8218  162.9663 N.ar    1  UNL1       -0.1113
     15 N         137.2563  140.7693  161.9554 N.ar    1  UNL1       -0.1055
     16 C         138.5245  141.1845  161.2703 C.ar    1  UNL1        0.2688
     17 O         138.9615  142.4935  161.8578 O.2     1  UNL1       -0.4182
     18 C         144.1541  142.2626  162.1762 C.ar    1  UNL1        0.2207
     19 N         144.1871  143.7383  161.9094 N.ar    1  UNL1       -0.2120
     20 C         143.9229  144.7079  163.0231 C.ar    1  UNL1        0.1034
     21 C         143.6258  144.2017  164.4035 C.ar    1  UNL1        0.0415
     22 C         143.5929  142.7260  164.6702 C.ar    1  UNL1        0.1050
     23 N         143.8570  141.7564  163.5566 N.ar    1  UNL1       -0.2120
     24 C         143.2958  142.2198  166.0506 C.ar    1  UNL1        0.1198
     25 C         142.5711  140.9503  166.3872 C.ar    1  UNL1        0.0381
     26 C         142.4986  140.8401  167.8814 C.ar    1  UNL1        0.0734
     27 N         143.1785  142.0415  168.4682 N.ar    1  UNL1       -0.2515
     28 C         143.3378  142.3381  169.9300 C.3     1  UNL1        0.1534
     29 N         143.6712  142.8942  167.3368 N.ar    1  UNL1       -0.1680
     30 C         141.8587  139.7244  168.6532 C.3     1  UNL1        0.1184
     31 N         140.4591  139.8769  169.1708 N.3     1  UNL1       -0.2652
     32 C         139.3128  139.9938  168.2104 C.3     1  UNL1        0.0900
     33 C         140.2058  139.9126  170.6489 C.3     1  UNL1        0.0900
@<TRIPOS>BOND
     1    12    13    1
     2    13    14   ar
     3    14    15   ar
     4    15    16   ar
     5    16     3    1
     6     3     4   ar
     7     4     5   ar
     8     5     6   ar
     9     6     7   ar
    10     7     8   ar
    11     8     9   ar
    12     9     1    1
    13     1    18    1
    14    18    19   ar
    15    19    20   ar
    16    20    21   ar
    17    21    22   ar
    18    22    24    1
    19    24    25   ar
    20    25    26   ar
    21    26    30    1
    22    30    31    1
    23    31    32    1
    24    31    33    1
    25    26    27   ar
    26    27    28    1
    27    27    29   ar
    28    22    23   ar
    29     9    10   ar
    30    10    11   ar
    31    16    17   ar
    32    17    13   ar
    33    11     3   ar
    34    11     6   ar
    35    23    18   ar
    36    29    24   ar
    37     1     2    1
@<TRIPOS>MOLECULE
*****
 33 37 0 0 0
SMALL
GASTEIGER

@<TRIPOS>ATOM
      1 N         140.9241  145.5688  161.3984 N.pl3   1  UNL1       -0.2824
      2 H         141.0695  146.5383  161.4885 H       1  UNL1        0.1551
      3 C         143.6377  141.4313  159.4133 C.ar    1  UNL1        0.1539
      4 N         144.0797  141.1797  158.0022 N.ar    1  UNL1       -0.2188
      5 C         143.6223  142.3340  157.1605 C.ar    1  UNL1        0.1830
      6 N         142.8976  143.2989  158.0514 N.ar    1  UNL1       -0.2862
      7 C         142.2303  144.6135  157.7747 C.ar    1  UNL1        0.0828
      8 C         141.5725  145.3701  158.8904 C.ar    1  UNL1        0.0338
      9 C         141.5819  144.8121  160.2827 C.ar    1  UNL1        0.0535
     10 C         142.2492  143.4976  160.5594 C.ar    1  UNL1        0.0340
     11 C         142.9071  142.7410  159.4437 C.ar    1  UNL1        0.0890
     12 C         144.9644  139.6982  164.2213 C.3     1  UNL1        0.0967
     13 C         144.4929  139.7345  162.7979 C.ar    1  UNL1        0.2270
     14 N         144.0286  138.5573  161.9925 N.ar    1  UNL1       -0.1113
     15 N         143.6517  139.0496  160.6267 N.ar    1  UNL1       -0.1055
     16 C         143.8831  140.5311  160.5878 C.ar    1  UNL1        0.2688
     17 O         144.4030  140.9544  161.9296 O.2     1  UNL1       -0.4182
     18 C         140.0446  144.8483  162.3768 C.ar    1  UNL1        0.2207
     19 N         138.5527  144.9599  162.2678 N.ar    1  UNL1       -0.2120
     20 C         137.6732  144.2394  163.2463 C.ar    1  UNL1        0.1034
     21 C         138.2856  143.4073  164.3338 C.ar    1  UNL1        0.0415
     22 C         139.7775  143.2958  164.4428 C.ar    1  UNL1        0.1050
     23 N         140.6569  144.0162  163.4644 N.ar    1  UNL1       -0.2120
     24 C         140.3898  142.4637  165.5303 C.ar    1  UNL1        0.1198
     25 C         140.3103  142.7398  167.0025 C.ar    1  UNL1        0.0381
     26 C         141.0606  141.6562  167.7186 C.ar    1  UNL1        0.0734
     27 N         141.6039  140.7104  166.6889 N.ar    1  UNL1       -0.2515
     28 C         142.4186  139.4812  166.9635 C.3     1  UNL1        0.1534
     29 N         141.1893  141.2094  165.3365 N.ar    1  UNL1       -0.1680
     30 C         141.2367  141.5390  169.2036 C.3     1  UNL1        0.1184
     31 N         142.6044  141.3279  169.7823 N.3     1  UNL1       -0.2652
     32 C         143.6839  142.3419  169.5451 C.3     1  UNL1        0.0900
     33 C         142.8925  140.1026  170.5983 C.3     1  UNL1        0.0900
@<TRIPOS>BOND
     1    12    13    1
     2    13    14   ar
     3    14    15   ar
     4    15    16   ar
     5    16     3    1
     6     3     4   ar
     7     4     5   ar
     8     5     6   ar
     9     6     7   ar
    10     7     8   ar
    11     8     9   ar
    12     9     1    1
    13     1    18    1
    14    18    19   ar
    15    19    20   ar
    16    20    21   ar
    17    21    22   ar
    18    22    24    1
    19    24    25   ar
    20    25    26   ar
    21    26    30    1
    22    30    31    1
    23    31    32    1
    24    31    33    1
    25    26    27   ar
    26    27    28    1
    27    27    29   ar
    28    22    23   ar
    29     9    10   ar
    30    10    11   ar
    31    16    17   ar
    32    17    13   ar
    33    11     3   ar
    34    11     6   ar
    35    23    18   ar
    36    29    24   ar
    37     1     2    1
@<TRIPOS>MOLECULE
*****
 33 37 0 0 0
SMALL
GASTEIGER

@<TRIPOS>ATOM
      1 N         138.4007  139.3339  167.2258 N.pl3   1  UNL1       -0.2824
      2 H         137.5799  139.0687  167.7003 H       1  UNL1        0.1551
      3 C         142.9765  142.0619  167.4359 C.ar    1  UNL1        0.1539
      4 N         143.6591  142.6735  168.6234 N.ar    1  UNL1       -0.2188
      5 C         142.8199  142.3945  169.8349 C.ar    1  UNL1        0.1830
      6 N         141.6187  141.6105  169.3964 N.ar    1  UNL1       -0.2862
      7 C         140.4493  141.0572  170.1555 C.ar    1  UNL1        0.0828
      8 C         139.3767  140.2984  169.4320 C.ar    1  UNL1        0.0338
      9 C         139.4734  140.0928  167.9493 C.ar    1  UNL1        0.0535
     10 C         140.6428  140.6460  167.1901 C.ar    1  UNL1        0.0340
     11 C         141.7154  141.4049  167.9137 C.ar    1  UNL1        0.0890
     12 C         144.4795  143.8162  162.6879 C.3     1  UNL1        0.0967
     13 C         144.1594  142.9068  163.8370 C.ar    1  UNL1        0.2270
     14 N         144.2918  141.4126  163.8424 N.ar    1  UNL1       -0.1113
     15 N         143.8648  140.9143  165.1912 N.ar    1  UNL1       -0.1055
     16 C         143.4685  142.1004  166.0195 C.ar    1  UNL1        0.2688
     17 O         143.6505  143.3318  165.1825 O.2     1  UNL1       -0.4182
     18 C         138.5785  138.9791  165.7793 C.ar    1  UNL1        0.2207
     19 N         138.6101  137.5397  165.3585 N.ar    1  UNL1       -0.2120
     20 C         138.7880  137.1850  163.9118 C.ar    1  UNL1        0.1034
     21 C         138.9343  138.2696  162.8861 C.ar    1  UNL1        0.0415
     22 C         138.9027  139.7090  163.3070 C.ar    1  UNL1        0.1050
     23 N         138.7248  140.0638  164.7535 N.ar    1  UNL1       -0.2120
     24 C         139.0489  140.7937  162.2813 C.ar    1  UNL1        0.1198
     25 C         139.9006  142.0216  162.4118 C.ar    1  UNL1        0.0381
     26 C         139.7472  142.8277  161.1561 C.ar    1  UNL1        0.0734
     27 N         138.8008  142.0979  160.2495 N.ar    1  UNL1       -0.2515
     28 C         138.3628  142.5465  158.8868 C.3     1  UNL1        0.1534
     29 N         138.3692  140.8409  160.9449 N.ar    1  UNL1       -0.1680
     30 C         140.4218  144.1341  160.8591 C.3     1  UNL1        0.1184
     31 N         140.3807  145.2453  161.8659 N.3     1  UNL1       -0.2652
     32 C         141.1890  145.1464  163.1255 C.3     1  UNL1        0.0900
     33 C         139.5312  146.4555  161.6128 C.3     1  UNL1        0.0900
@<TRIPOS>BOND
     1    12    13    1
     2    13    14   ar
     3    14    15   ar
     4    15    16   ar
     5    16     3    1
     6     3     4   ar
     7     4     5   ar
     8     5     6   ar
     9     6     7   ar
    10     7     8   ar
    11     8     9   ar
    12     9     1    1
    13     1    18    1
    14    18    19   ar
    15    19    20   ar
    16    20    21   ar
    17    21    22   ar
    18    22    24    1
    19    24    25   ar
    20    25    26   ar
    21    26    30    1
    22    30    31    1
    23    31    32    1
    24    31    33    1
    25    26    27   ar
    26    27    28    1
    27    27    29   ar
    28    22    23   ar
    29     9    10   ar
    30    10    11   ar
    31    16    17   ar
    32    17    13   ar
    33    11     3   ar
    34    11     6   ar
    35    23    18   ar
    36    29    24   ar
    37     1     2    1
@<TRIPOS>MOLECULE
*****
 33 37 0 0 0
SMALL
GASTEIGER

@<TRIPOS>ATOM
      1 N         144.5334  141.6205  160.3048 N.pl3   1  UNL1       -0.2824
      2 H         145.5025  141.7516  160.1914 H       1  UNL1        0.1551
      3 C         140.2744  144.8057  160.6780 C.ar    1  UNL1        0.1539
      4 N         139.7004  145.7409  159.6553 N.ar    1  UNL1       -0.2188
      5 C         140.5479  145.6542  158.4207 C.ar    1  UNL1        0.1830
      6 N         141.6456  144.6654  158.6803 N.ar    1  UNL1       -0.2862
      7 C         142.7772  144.1749  157.8267 C.ar    1  UNL1        0.0828
      8 C         143.7397  143.1599  158.3682 C.ar    1  UNL1        0.0338
      9 C         143.5707  142.6355  159.7633 C.ar    1  UNL1        0.0535
     10 C         142.4391  143.1261  160.6170 C.ar    1  UNL1        0.0340
     11 C         141.4765  144.1410  160.0755 C.ar    1  UNL1        0.0890
     12 C         139.9472  143.4867  165.7803 C.3     1  UNL1        0.0967
     13 C         139.5896  143.9693  164.4059 C.ar    1  UNL1        0.2270
     14 N         138.2457  144.4736  163.9703 N.ar    1  UNL1       -0.1113
     15 N         138.3387  144.8483  162.5209 N.ar    1  UNL1       -0.1055
     16 C         139.7400  144.5756  162.0606 C.ar    1  UNL1        0.2688
     17 O         140.5131  144.0324  163.2255 O.2     1  UNL1       -0.4182
     18 C         144.0194  140.4057  161.0189 C.ar    1  UNL1        0.2207
     19 N         144.0504  139.0680  160.3410 N.ar    1  UNL1       -0.2120
     20 C         143.5364  137.8531  161.0553 C.ar    1  UNL1        0.1034
     21 C         142.9916  137.9760  162.4474 C.ar    1  UNL1        0.0415
     22 C         142.9606  139.3137  163.1253 C.ar    1  UNL1        0.1050
     23 N         143.4745  140.5285  162.4111 N.ar    1  UNL1       -0.2120
     24 C         142.4157  139.4366  164.5174 C.ar    1  UNL1        0.1198
     25 C         143.2027  139.3026  165.7873 C.ar    1  UNL1        0.0381
     26 C         142.2616  139.4983  166.9388 C.ar    1  UNL1        0.0734
     27 N         140.8929  139.7533  166.3805 N.ar    1  UNL1       -0.2515
     28 C         139.6475  140.0026  167.1786 C.3     1  UNL1        0.1534
     29 N         140.9882  139.7152  164.8840 N.ar    1  UNL1       -0.1680
     30 C         142.6253  139.4478  168.3931 C.3     1  UNL1        0.1184
     31 N         142.6431  140.7084  169.2059 N.3     1  UNL1       -0.2652
     32 C         142.3891  140.6520  170.6832 C.3     1  UNL1        0.0900
     33 C         142.9149  142.0255  168.5414 C.3     1  UNL1        0.0900
@<TRIPOS>BOND
     1    12    13    1
     2    13    14   ar
     3    14    15   ar
     4    15    16   ar
     5    16     3    1
     6     3     4   ar
     7     4     5   ar
     8     5     6   ar
     9     6     7   ar
    10     7     8   ar
    11     8     9   ar
    12     9     1    1
    13     1    18    1
    14    18    19   ar
    15    19    20   ar
    16    20    21   ar
    17    21    22   ar
    18    22    24    1
    19    24    25   ar
    20    25    26   ar
    21    26    30    1
    22    30    31    1
    23    31    32    1
    24    31    33    1
    25    26    27   ar
    26    27    28    1
    27    27    29   ar
    28    22    23   ar
    29     9    10   ar
    30    10    11   ar
    31    16    17   ar
    32    17    13   ar
    33    11     3   ar
    34    11     6   ar
    35    23    18   ar
    36    29    24   ar
    37     1     2    1
@<TRIPOS>MOLECULE
*****
 33 37 0 0 0
SMALL
GASTEIGER

@<TRIPOS>ATOM
      1 N         137.9366  141.1294  161.7821 N.pl3   1  UNL1       -0.2824
      2 H         136.9881  141.3896  161.7395 H       1  UNL1        0.1551
      3 C         142.8814  142.6633  160.5091 C.ar    1  UNL1        0.1539
      4 N         143.3530  143.4381  159.3145 N.ar    1  UNL1       -0.2188
      5 C         142.1586  143.7474  158.4615 C.ar    1  UNL1        0.1830
      6 N         140.9487  143.1636  159.1289 N.ar    1  UNL1       -0.2862
      7 C         139.4980  143.1556  158.7478 C.ar    1  UNL1        0.0828
      8 C         138.4940  142.4775  159.6322 C.ar    1  UNL1        0.0338
      9 C         138.9407  141.8075  160.8977 C.ar    1  UNL1        0.0535
     10 C         140.3914  141.8155  161.2788 C.ar    1  UNL1        0.0340
     11 C         141.3954  142.4936  160.3944 C.ar    1  UNL1        0.0890
     12 C         144.9628  139.5220  164.2078 C.3     1  UNL1        0.0967
     13 C         144.7009  140.7045  163.3230 C.ar    1  UNL1        0.2270
     14 N         145.4429  142.0079  163.3506 N.ar    1  UNL1       -0.1113
     15 N         144.8516  142.9003  162.2999 N.ar    1  UNL1       -0.1055
     16 C         143.7442  142.1484  161.6229 C.ar    1  UNL1        0.2688
     17 O         143.6511  140.7915  162.2552 O.2     1  UNL1       -0.4182
     18 C         138.3777  140.0550  162.7312 C.ar    1  UNL1        0.2207
     19 N         138.4964  138.6371  162.2563 N.ar    1  UNL1       -0.2120
     20 C         138.9375  137.5627  163.2056 C.ar    1  UNL1        0.1034
     21 C         139.2601  137.9061  164.6296 C.ar    1  UNL1        0.0415
     22 C         139.1414  139.3240  165.1045 C.ar    1  UNL1        0.1050
     23 N         138.7003  140.3984  164.1554 N.ar    1  UNL1       -0.2120
     24 C         139.4640  139.6675  166.5286 C.ar    1  UNL1        0.1198
     25 C         140.7519  140.2558  167.0237 C.ar    1  UNL1        0.0381
     26 C         140.6391  140.4349  168.5087 C.ar    1  UNL1        0.0734
     27 N         139.2815  139.9572  168.9313 N.ar    1  UNL1       -0.2515
     28 C         138.7444  139.9543  170.3319 C.3     1  UNL1        0.1534
     29 N         138.5552  139.4829  167.7076 N.ar    1  UNL1       -0.1680
     30 C         141.6981  140.9935  169.4123 C.3     1  UNL1        0.1184
     31 N         141.7040  142.4558  169.7463 N.3     1  UNL1       -0.2652
     32 C         140.5034  143.3005  169.4379 C.3     1  UNL1        0.0900
     33 C         142.9106  143.0735  170.3888 C.3     1  UNL1        0.0900
@<TRIPOS>BOND
     1    12    13    1
     2    13    14   ar
     3    14    15   ar
     4    15    16   ar
     5    16     3    1
     6     3     4   ar
     7     4     5   ar
     8     5     6   ar
     9     6     7   ar
    10     7     8   ar
    11     8     9   ar
    12     9     1    1
    13     1    18    1
    14    18    19   ar
    15    19    20   ar
    16    20    21   ar
    17    21    22   ar
    18    22    24    1
    19    24    25   ar
    20    25    26   ar
    21    26    30    1
    22    30    31    1
    23    31    32    1
    24    31    33    1
    25    26    27   ar
    26    27    28    1
    27    27    29   ar
    28    22    23   ar
    29     9    10   ar
    30    10    11   ar
    31    16    17   ar
    32    17    13   ar
    33    11     3   ar
    34    11     6   ar
    35    23    18   ar
    36    29    24   ar
    37     1     2    1
