@<TRIPOS>MOLECULE
*****
 37 41 0 0 0
SMALL
GASTEIGER

@<TRIPOS>ATOM
      1 C         140.5230  139.9373  159.9231 C.ar    1  UNL1        0.1740
      2 N         141.4148  138.9945  159.1709 N.ar    1  UNL1       -0.2259
      3 C         141.5987  139.1559  157.6910 C.ar    1  UNL1        0.0830
      4 C         140.8908  140.2601  156.9633 C.ar    1  UNL1        0.0199
      5 C         139.9990  141.2029  157.7154 C.ar    1  UNL1        0.0141
      6 C         139.8151  141.0415  159.1953 C.ar    1  UNL1        0.1042
      7 C         143.2735  141.5393  163.2319 C.ar    1  UNL1        0.2089
      8 N         142.4834  141.0119  164.3928 N.ar    1  UNL1       -0.1500
      9 N         141.2880  140.2872  163.8490 N.ar    1  UNL1       -0.2060
     10 C         141.3392  140.3666  162.3520 C.ar    1  UNL1        0.1983
     11 N         140.3390  139.7760  161.4029 N.2     1  UNL1       -0.2011
     12 S         142.5663  141.1405  161.9706 S.2     1  UNL1       -0.0214
     13 C         140.2275  139.6031  164.6599 C.ar    1  UNL1        0.0849
     14 C         139.4783  140.3665  165.7114 C.ar    1  UNL1        0.0192
     15 C         138.4179  139.6824  166.5223 C.ar    1  UNL1        0.0015
     16 C         138.1067  138.2349  166.2815 C.ar    1  UNL1        0.0001
     17 C         138.8559  137.4715  165.2300 C.ar    1  UNL1        0.0015
     18 C         139.9163  138.1556  164.4191 C.ar    1  UNL1        0.0192
     19 C         144.5471  142.3271  163.3173 C.2     1  UNL1        0.3673
     20 O         145.8321  141.7310  162.8241 O.2     1  UNL1       -0.2425
     21 O         144.5356  143.7110  163.8959 O.3     1  UNL1       -0.4440
     22 C         142.4138  145.1973  163.6981 C.3     1  UNL1        0.0513
     23 C         143.7759  144.8057  163.2069 C.3     1  UNL1        0.2090
     24 C         142.4905  138.2132  156.9388 C.ar    1  UNL1        0.0177
     25 C         142.3530  136.7325  157.1360 C.ar    1  UNL1        0.0015
     26 C         143.2448  135.7897  156.3838 C.ar    1  UNL1        0.0000
     27 C         144.2742  136.3275  155.4345 C.ar    1  UNL1        0.0000
     28 C         144.4117  137.8081  155.2373 C.ar    1  UNL1        0.0000
     29 C         143.5199  138.7510  155.9895 C.ar    1  UNL1        0.0015
     30 C         139.2910  142.3071  156.9876 C.ar    1  UNL1        0.0008
     31 C         139.9798  143.6210  156.7651 C.ar    1  UNL1        0.0000
     32 C         139.2718  144.7251  156.0373 C.ar    1  UNL1        0.0000
     33 C         137.8752  144.5154  155.5320 C.ar    1  UNL1        0.0000
     34 C         137.1864  143.2015  155.7546 C.ar    1  UNL1        0.0000
     35 C         137.8944  142.0974  156.4824 C.ar    1  UNL1        0.0000
     36 C         138.9232  141.9844  159.9475 C.1     1  UNL1        0.1035
     37 N         138.0313  142.9272  160.6996 N.1     1  UNL1       -0.1907
@<TRIPOS>BOND
     1    22    23    1
     2    23    21    1
     3    21    19    1
     4    19    20    2
     5    19     7    1
     6     7     8   ar
     7     8     9   ar
     8     9    13    1
     9    13    14   ar
    10    14    15   ar
    11    15    16   ar
    12    16    17   ar
    13    17    18   ar
    14     9    10   ar
    15    10    11    2
    16    11     1    1
    17     1     2   ar
    18     2     3   ar
    19     3    24    1
    20    24    25   ar
    21    25    26   ar
    22    26    27   ar
    23    27    28   ar
    24    28    29   ar
    25     3     4   ar
    26     4     5   ar
    27     5    30    1
    28    30    31   ar
    29    31    32   ar
    30    32    33   ar
    31    33    34   ar
    32    34    35   ar
    33     5     6   ar
    34     6    36    1
    35    36    37    3
    36    10    12   ar
    37    12     7   ar
    38    18    13   ar
    39     6     1   ar
    40    29    24   ar
    41    35    30   ar
@<TRIPOS>MOLECULE
*****
 37 41 0 0 0
SMALL
GASTEIGER

@<TRIPOS>ATOM
      1 C         139.9382  139.5866  159.7059 C.ar    1  UNL1        0.1740
      2 N         140.5537  138.4687  158.9176 N.ar    1  UNL1       -0.2259
      3 C         140.5825  138.5346  157.4193 C.ar    1  UNL1        0.0830
      4 C         139.9958  139.7185  156.7093 C.ar    1  UNL1        0.0199
      5 C         139.3803  140.8365  157.4976 C.ar    1  UNL1        0.0141
      6 C         139.3515  140.7705  158.9958 C.ar    1  UNL1        0.1042
      7 C         143.0711  141.2879  162.5990 C.ar    1  UNL1        0.2089
      8 N         142.3955  140.8587  163.8676 N.ar    1  UNL1       -0.1500
      9 N         141.1288  140.1445  163.4995 N.ar    1  UNL1       -0.2060
     10 C         141.0216  140.1322  162.0034 C.ar    1  UNL1        0.1983
     11 N         139.9093  139.5207  161.2041 N.2     1  UNL1       -0.2011
     12 S         142.2220  140.8389  161.4468 S.2     1  UNL1       -0.0214
     13 C         140.1425  139.5473  164.4591 C.ar    1  UNL1        0.0849
     14 C         139.4873  140.4111  165.4956 C.ar    1  UNL1        0.0192
     15 C         138.5011  139.8140  166.4551 C.ar    1  UNL1        0.0015
     16 C         138.1701  138.3530  166.3781 C.ar    1  UNL1        0.0001
     17 C         138.8253  137.4892  165.3415 C.ar    1  UNL1        0.0015
     18 C         139.8115  138.0863  164.3820 C.ar    1  UNL1        0.0192
     19 C         144.3681  142.0349  162.5000 C.2     1  UNL1        0.3673
     20 O         145.6560  141.3513  162.8519 O.2     1  UNL1       -0.2425
     21 O         144.3771  143.4655  162.0490 O.3     1  UNL1       -0.4440
     22 C         143.6608  144.9931  164.0246 C.3     1  UNL1        0.0513
     23 C         143.4149  144.4472  162.6493 C.3     1  UNL1        0.2090
     24 C         141.1980  137.4167  156.6311 C.ar    1  UNL1        0.0177
     25 C         140.4159  136.7507  155.5379 C.ar    1  UNL1        0.0015
     26 C         141.0314  135.6327  154.7497 C.ar    1  UNL1        0.0000
     27 C         142.4288  135.1807  155.0545 C.ar    1  UNL1        0.0000
     28 C         143.2108  135.8468  156.1476 C.ar    1  UNL1        0.0000
     29 C         142.5954  136.9648  156.9359 C.ar    1  UNL1        0.0015
     30 C         138.7936  142.0204  156.7875 C.ar    1  UNL1        0.0008
     31 C         137.3468  142.0165  156.3918 C.ar    1  UNL1        0.0000
     32 C         136.7602  143.2004  155.6817 C.ar    1  UNL1        0.0000
     33 C         137.6204  144.3883  155.3673 C.ar    1  UNL1        0.0000
     34 C         139.0673  144.3922  155.7630 C.ar    1  UNL1        0.0000
     35 C         139.6539  143.2083  156.4731 C.ar    1  UNL1        0.0000
     36 C         138.7360  141.8886  159.7841 C.1     1  UNL1        0.1035
     37 N         138.1205  143.0065  160.5723 N.1     1  UNL1       -0.1907
@<TRIPOS>BOND
     1    22    23    1
     2    23    21    1
     3    21    19    1
     4    19    20    2
     5    19     7    1
     6     7     8   ar
     7     8     9   ar
     8     9    13    1
     9    13    14   ar
    10    14    15   ar
    11    15    16   ar
    12    16    17   ar
    13    17    18   ar
    14     9    10   ar
    15    10    11    2
    16    11     1    1
    17     1     2   ar
    18     2     3   ar
    19     3    24    1
    20    24    25   ar
    21    25    26   ar
    22    26    27   ar
    23    27    28   ar
    24    28    29   ar
    25     3     4   ar
    26     4     5   ar
    27     5    30    1
    28    30    31   ar
    29    31    32   ar
    30    32    33   ar
    31    33    34   ar
    32    34    35   ar
    33     5     6   ar
    34     6    36    1
    35    36    37    3
    36    10    12   ar
    37    12     7   ar
    38    18    13   ar
    39     6     1   ar
    40    29    24   ar
    41    35    30   ar
@<TRIPOS>MOLECULE
*****
 37 41 0 0 0
SMALL
GASTEIGER

@<TRIPOS>ATOM
      1 C         139.6159  139.3402  159.1455 C.ar    1  UNL1        0.1740
      2 N         138.5270  139.8954  158.2761 N.ar    1  UNL1       -0.2259
      3 C         138.6226  139.7732  156.7841 C.ar    1  UNL1        0.0830
      4 C         139.8073  139.0956  156.1616 C.ar    1  UNL1        0.0199
      5 C         140.8962  138.5403  157.0310 C.ar    1  UNL1        0.0141
      6 C         140.8006  138.6626  158.5228 C.ar    1  UNL1        0.1042
      7 C         140.9997  142.8857  161.7133 C.ar    1  UNL1        0.2089
      8 N         140.5985  142.3133  163.0405 N.ar    1  UNL1       -0.1500
      9 N         139.9955  140.9613  162.7990 N.ar    1  UNL1       -0.2060
     10 C         140.0240  140.6980  161.3225 C.ar    1  UNL1        0.1983
     11 N         139.5204  139.4624  160.6374 N.2     1  UNL1       -0.2011
     12 S         140.6446  141.8874  160.6515 S.2     1  UNL1       -0.0214
     13 C         139.4583  140.0350  163.8495 C.ar    1  UNL1        0.0849
     14 C         139.8275  138.5814  163.8276 C.ar    1  UNL1        0.0192
     15 C         139.2903  137.6553  164.8781 C.ar    1  UNL1        0.0015
     16 C         138.3839  138.1828  165.9506 C.ar    1  UNL1        0.0001
     17 C         138.0147  139.6365  165.9725 C.ar    1  UNL1        0.0015
     18 C         138.5519  140.5626  164.9220 C.ar    1  UNL1        0.0192
     19 C         141.6430  144.2218  161.4875 C.2     1  UNL1        0.3673
     20 O         140.7911  145.4391  161.2811 O.2     1  UNL1       -0.2425
     21 O         143.1382  144.3407  161.4682 O.3     1  UNL1       -0.4440
     22 C         143.4309  145.0576  163.9481 C.3     1  UNL1        0.0513
     23 C         143.9113  144.2897  162.7525 C.3     1  UNL1        0.2090
     24 C         137.5337  140.3284  155.9147 C.ar    1  UNL1        0.0177
     25 C         136.9245  141.6613  156.2351 C.ar    1  UNL1        0.0015
     26 C         135.8356  142.2165  155.3657 C.ar    1  UNL1        0.0000
     27 C         135.3558  141.4391  154.1760 C.ar    1  UNL1        0.0000
     28 C         135.9649  140.1063  153.8557 C.ar    1  UNL1        0.0000
     29 C         137.0539  139.5509  154.7250 C.ar    1  UNL1        0.0015
     30 C         142.0808  137.8627  156.4083 C.ar    1  UNL1        0.0008
     31 C         143.2517  138.6768  155.9430 C.ar    1  UNL1        0.0000
     32 C         144.4362  137.9992  155.3204 C.ar    1  UNL1        0.0000
     33 C         144.4500  136.5075  155.1631 C.ar    1  UNL1        0.0000
     34 C         143.2791  135.6935  155.6284 C.ar    1  UNL1        0.0000
     35 C         142.0946  136.3711  156.2510 C.ar    1  UNL1        0.0000
     36 C         141.8896  138.1073  159.3922 C.1     1  UNL1        0.1035
     37 N         142.9785  137.5520  160.2616 N.1     1  UNL1       -0.1907
@<TRIPOS>BOND
     1    22    23    1
     2    23    21    1
     3    21    19    1
     4    19    20    2
     5    19     7    1
     6     7     8   ar
     7     8     9   ar
     8     9    13    1
     9    13    14   ar
    10    14    15   ar
    11    15    16   ar
    12    16    17   ar
    13    17    18   ar
    14     9    10   ar
    15    10    11    2
    16    11     1    1
    17     1     2   ar
    18     2     3   ar
    19     3    24    1
    20    24    25   ar
    21    25    26   ar
    22    26    27   ar
    23    27    28   ar
    24    28    29   ar
    25     3     4   ar
    26     4     5   ar
    27     5    30    1
    28    30    31   ar
    29    31    32   ar
    30    32    33   ar
    31    33    34   ar
    32    34    35   ar
    33     5     6   ar
    34     6    36    1
    35    36    37    3
    36    10    12   ar
    37    12     7   ar
    38    18    13   ar
    39     6     1   ar
    40    29    24   ar
    41    35    30   ar
@<TRIPOS>MOLECULE
*****
 37 41 0 0 0
SMALL
GASTEIGER

@<TRIPOS>ATOM
      1 C         139.1034  143.3618  158.2335 C.ar    1  UNL1        0.1740
      2 N         139.5022  144.5310  157.3826 N.ar    1  UNL1       -0.2259
      3 C         139.3778  144.4494  155.8900 C.ar    1  UNL1        0.0830
      4 C         138.8547  143.1987  155.2482 C.ar    1  UNL1        0.0199
      5 C         138.4559  142.0295  156.0991 C.ar    1  UNL1        0.0141
      6 C         138.5803  142.1110  157.5916 C.ar    1  UNL1        0.1042
      7 C         142.9149  142.7460  160.7181 C.ar    1  UNL1        0.2089
      8 N         142.2908  142.9728  162.0631 N.ar    1  UNL1       -0.1500
      9 N         140.8336  143.2617  161.8552 N.ar    1  UNL1       -0.2060
     10 C         140.5571  143.2133  160.3817 C.ar    1  UNL1        0.1983
     11 N         139.2277  143.4433  159.7260 N.2     1  UNL1       -0.2011
     12 S         141.8434  142.8946  159.6789 S.2     1  UNL1       -0.0214
     13 C         139.8292  143.5485  162.9318 C.ar    1  UNL1        0.0849
     14 C         138.6089  142.6870  163.0678 C.ar    1  UNL1        0.0192
     15 C         137.6046  142.9739  164.1444 C.ar    1  UNL1        0.0015
     16 C         137.8207  144.1222  165.0850 C.ar    1  UNL1        0.0001
     17 C         139.0411  144.9836  164.9490 C.ar    1  UNL1        0.0015
     18 C         140.0453  144.6968  163.8724 C.ar    1  UNL1        0.0192
     19 C         144.3572  142.4266  160.4579 C.2     1  UNL1        0.3673
     20 O         144.9081  142.5259  159.0663 O.2     1  UNL1       -0.2425
     21 O         145.2486  142.0079  161.5894 O.3     1  UNL1       -0.4440
     22 C         145.2817  140.7907  163.8845 C.3     1  UNL1        0.0513
     23 C         144.8769  140.8301  162.4406 C.3     1  UNL1        0.2090
     24 C         139.7766  145.6186  155.0392 C.ar    1  UNL1        0.0177
     25 C         139.1960  146.9752  155.3090 C.ar    1  UNL1        0.0015
     26 C         139.5948  148.1444  154.4582 C.ar    1  UNL1        0.0000
     27 C         140.5741  147.9571  153.3375 C.ar    1  UNL1        0.0000
     28 C         141.1547  146.6006  153.0678 C.ar    1  UNL1        0.0000
     29 C         140.7560  145.4313  153.9186 C.ar    1  UNL1        0.0015
     30 C         137.9327  140.7787  155.4572 C.ar    1  UNL1        0.0008
     31 C         138.8771  139.6726  155.0899 C.ar    1  UNL1        0.0000
     32 C         138.3539  138.4219  154.4480 C.ar    1  UNL1        0.0000
     33 C         136.8863  138.2773  154.1735 C.ar    1  UNL1        0.0000
     34 C         135.9420  139.3833  154.5409 C.ar    1  UNL1        0.0000
     35 C         136.4652  140.6340  155.1827 C.ar    1  UNL1        0.0000
     36 C         138.1814  140.9417  158.4425 C.1     1  UNL1        0.1035
     37 N         137.7826  139.7725  159.2933 N.1     1  UNL1       -0.1907
@<TRIPOS>BOND
     1    22    23    1
     2    23    21    1
     3    21    19    1
     4    19    20    2
     5    19     7    1
     6     7     8   ar
     7     8     9   ar
     8     9    13    1
     9    13    14   ar
    10    14    15   ar
    11    15    16   ar
    12    16    17   ar
    13    17    18   ar
    14     9    10   ar
    15    10    11    2
    16    11     1    1
    17     1     2   ar
    18     2     3   ar
    19     3    24    1
    20    24    25   ar
    21    25    26   ar
    22    26    27   ar
    23    27    28   ar
    24    28    29   ar
    25     3     4   ar
    26     4     5   ar
    27     5    30    1
    28    30    31   ar
    29    31    32   ar
    30    32    33   ar
    31    33    34   ar
    32    34    35   ar
    33     5     6   ar
    34     6    36    1
    35    36    37    3
    36    10    12   ar
    37    12     7   ar
    38    18    13   ar
    39     6     1   ar
    40    29    24   ar
    41    35    30   ar
@<TRIPOS>MOLECULE
*****
 37 41 0 0 0
SMALL
GASTEIGER

@<TRIPOS>ATOM
      1 C         144.8807  141.4782  157.7406 C.ar    1  UNL1        0.1740
      2 N         145.9362  142.1627  156.9236 N.ar    1  UNL1       -0.2259
      3 C         146.2912  141.6367  155.5645 C.ar    1  UNL1        0.0830
      4 C         145.5908  140.4262  155.0223 C.ar    1  UNL1        0.0199
      5 C         144.5353  139.7417  155.8393 C.ar    1  UNL1        0.0141
      6 C         144.1803  140.2677  157.1983 C.ar    1  UNL1        0.1042
      7 C         141.6448  144.5798  158.7353 C.ar    1  UNL1        0.2089
      8 N         141.8650  144.5991  160.2189 N.ar    1  UNL1       -0.1500
      9 N         142.9709  143.6366  160.5360 N.ar    1  UNL1       -0.2060
     10 C         143.4343  143.0224  159.2484 C.ar    1  UNL1        0.1983
     11 N         144.5256  142.0042  159.0997 N.2     1  UNL1       -0.2011
     12 S         142.6148  143.6053  158.1355 S.2     1  UNL1       -0.0214
     13 C         143.5175  143.3403  161.9012 C.ar    1  UNL1        0.0849
     14 C         143.6191  144.4346  162.9221 C.ar    1  UNL1        0.0192
     15 C         144.1657  144.1383  164.2871 C.ar    1  UNL1        0.0015
     16 C         144.6107  142.7477  164.6313 C.ar    1  UNL1        0.0001
     17 C         144.5090  141.6535  163.6104 C.ar    1  UNL1        0.0015
     18 C         143.9625  141.9498  162.2453 C.ar    1  UNL1        0.0192
     19 C         140.6326  145.3922  157.9835 C.2     1  UNL1        0.3673
     20 O         139.6432  146.2360  158.7312 O.2     1  UNL1       -0.2425
     21 O         140.6097  145.3608  156.4840 O.3     1  UNL1       -0.4440
     22 C         138.9199  147.0022  155.3884 C.3     1  UNL1        0.0513
     23 C         140.3329  146.6166  155.7117 C.3     1  UNL1        0.2090
     24 C         147.3467  142.3212  154.7475 C.ar    1  UNL1        0.0177
     25 C         148.7304  141.7463  154.6766 C.ar    1  UNL1        0.0015
     26 C         149.7859  142.4308  153.8597 C.ar    1  UNL1        0.0000
     27 C         149.4578  143.6901  153.1136 C.ar    1  UNL1        0.0000
     28 C         148.0741  144.2649  153.1846 C.ar    1  UNL1        0.0000
     29 C         147.0185  143.5804  154.0015 C.ar    1  UNL1        0.0015
     30 C         143.8348  138.5311  155.2970 C.ar    1  UNL1        0.0008
     31 C         142.6267  138.6924  154.4226 C.ar    1  UNL1        0.0000
     32 C         141.9263  137.4818  153.8804 C.ar    1  UNL1        0.0000
     33 C         142.4341  136.1100  154.2125 C.ar    1  UNL1        0.0000
     34 C         143.6422  135.9487  155.0869 C.ar    1  UNL1        0.0000
     35 C         144.3425  137.1593  155.6291 C.ar    1  UNL1        0.0000
     36 C         143.1247  139.5831  158.0153 C.1     1  UNL1        0.1035
     37 N         142.0692  138.8986  158.8322 N.1     1  UNL1       -0.1907
@<TRIPOS>BOND
     1    22    23    1
     2    23    21    1
     3    21    19    1
     4    19    20    2
     5    19     7    1
     6     7     8   ar
     7     8     9   ar
     8     9    13    1
     9    13    14   ar
    10    14    15   ar
    11    15    16   ar
    12    16    17   ar
    13    17    18   ar
    14     9    10   ar
    15    10    11    2
    16    11     1    1
    17     1     2   ar
    18     2     3   ar
    19     3    24    1
    20    24    25   ar
    21    25    26   ar
    22    26    27   ar
    23    27    28   ar
    24    28    29   ar
    25     3     4   ar
    26     4     5   ar
    27     5    30    1
    28    30    31   ar
    29    31    32   ar
    30    32    33   ar
    31    33    34   ar
    32    34    35   ar
    33     5     6   ar
    34     6    36    1
    35    36    37    3
    36    10    12   ar
    37    12     7   ar
    38    18    13   ar
    39     6     1   ar
    40    29    24   ar
    41    35    30   ar
@<TRIPOS>MOLECULE
*****
 37 41 0 0 0
SMALL
GASTEIGER

@<TRIPOS>ATOM
      1 C         143.1361  138.7362  158.8935 C.ar    1  UNL1        0.1740
      2 N         142.7671  137.4579  158.2010 N.ar    1  UNL1       -0.2259
      3 C         142.8984  137.3471  156.7109 C.ar    1  UNL1        0.0830
      4 C         143.3987  138.5148  155.9132 C.ar    1  UNL1        0.0199
      5 C         143.7677  139.7932  156.6057 C.ar    1  UNL1        0.0141
      6 C         143.6365  139.9039  158.0957 C.ar    1  UNL1        0.1042
      7 C         139.4091  140.0296  161.2421 C.ar    1  UNL1        0.2089
      8 N         140.0074  139.9031  162.6118 N.ar    1  UNL1       -0.1500
      9 N         141.4272  139.4447  162.4569 N.ar    1  UNL1       -0.2060
     10 C         141.7064  139.2879  160.9915 C.ar    1  UNL1        0.1983
     11 N         143.0049  138.8471  160.3836 N.2     1  UNL1       -0.2011
     12 S         140.4592  139.6495  160.2407 S.2     1  UNL1       -0.0214
     13 C         142.3974  139.1880  163.5718 C.ar    1  UNL1        0.0849
     14 C         141.9690  138.3961  164.7714 C.ar    1  UNL1        0.0192
     15 C         142.9393  138.1395  165.8862 C.ar    1  UNL1        0.0015
     16 C         144.3379  138.6749  165.8013 C.ar    1  UNL1        0.0001
     17 C         144.7663  139.4669  164.6017 C.ar    1  UNL1        0.0015
     18 C         143.7961  139.7234  163.4869 C.ar    1  UNL1        0.0192
     19 C         138.0069  140.4607  160.9288 C.2     1  UNL1        0.3673
     20 O         137.2521  139.8032  159.8118 O.2     1  UNL1       -0.2425
     21 O         137.3597  141.5493  161.7326 O.3     1  UNL1       -0.4440
     22 C         137.7305  143.7430  163.0744 C.3     1  UNL1        0.0513
     23 C         138.0481  142.8721  161.8951 C.3     1  UNL1        0.2090
     24 C         142.5294  136.0688  156.0184 C.ar    1  UNL1        0.0177
     25 C         141.6887  136.1042  154.7765 C.ar    1  UNL1        0.0015
     26 C         141.3197  134.8258  154.0840 C.ar    1  UNL1        0.0000
     27 C         141.7913  133.5120  154.6333 C.ar    1  UNL1        0.0000
     28 C         142.6319  133.4767  155.8751 C.ar    1  UNL1        0.0000
     29 C         143.0009  134.7550  156.5677 C.ar    1  UNL1        0.0015
     30 C         144.2680  140.9608  155.8079 C.ar    1  UNL1        0.0008
     31 C         143.2995  141.9728  155.2714 C.ar    1  UNL1        0.0000
     32 C         143.7999  143.1404  154.4737 C.ar    1  UNL1        0.0000
     33 C         145.2687  143.2960  154.2125 C.ar    1  UNL1        0.0000
     34 C         146.2372  142.2840  154.7491 C.ar    1  UNL1        0.0000
     35 C         145.7369  141.1164  155.5468 C.ar    1  UNL1        0.0000
     36 C         144.0055  141.1824  158.7883 C.1     1  UNL1        0.1035
     37 N         144.3745  142.4608  159.4807 N.1     1  UNL1       -0.1907
@<TRIPOS>BOND
     1    22    23    1
     2    23    21    1
     3    21    19    1
     4    19    20    2
     5    19     7    1
     6     7     8   ar
     7     8     9   ar
     8     9    13    1
     9    13    14   ar
    10    14    15   ar
    11    15    16   ar
    12    16    17   ar
    13    17    18   ar
    14     9    10   ar
    15    10    11    2
    16    11     1    1
    17     1     2   ar
    18     2     3   ar
    19     3    24    1
    20    24    25   ar
    21    25    26   ar
    22    26    27   ar
    23    27    28   ar
    24    28    29   ar
    25     3     4   ar
    26     4     5   ar
    27     5    30    1
    28    30    31   ar
    29    31    32   ar
    30    32    33   ar
    31    33    34   ar
    32    34    35   ar
    33     5     6   ar
    34     6    36    1
    35    36    37    3
    36    10    12   ar
    37    12     7   ar
    38    18    13   ar
    39     6     1   ar
    40    29    24   ar
    41    35    30   ar
@<TRIPOS>MOLECULE
*****
 37 41 0 0 0
SMALL
GASTEIGER

@<TRIPOS>ATOM
      1 C         142.8556  140.0048  159.3469 C.ar    1  UNL1        0.1740
      2 N         144.0321  140.5835  158.6182 N.ar    1  UNL1       -0.2259
      3 C         144.0657  140.5707  157.1186 C.ar    1  UNL1        0.0830
      4 C         142.9230  139.9792  156.3478 C.ar    1  UNL1        0.0199
      5 C         141.7465  139.4005  157.0765 C.ar    1  UNL1        0.0141
      6 C         141.7128  139.4133  158.5760 C.ar    1  UNL1        0.1042
      7 C         140.7826  143.1009  162.0296 C.ar    1  UNL1        0.2089
      8 N         141.1640  142.4844  163.3427 N.ar    1  UNL1       -0.1500
      9 N         141.9744  141.2543  163.0594 N.ar    1  UNL1       -0.2060
     10 C         142.0938  141.1106  161.5711 C.ar    1  UNL1        0.1983
     11 N         142.8219  140.0175  160.8464 N.2     1  UNL1       -0.2011
     12 S         141.3572  142.2518  160.9346 S.2     1  UNL1       -0.0214
     13 C         142.5622  140.3303  164.0844 C.ar    1  UNL1        0.0849
     14 C         144.0248  140.0000  164.0456 C.ar    1  UNL1        0.0192
     15 C         144.6125  139.0760  165.0706 C.ar    1  UNL1        0.0015
     16 C         143.7376  138.4822  166.1345 C.ar    1  UNL1        0.0001
     17 C         142.2749  138.8124  166.1734 C.ar    1  UNL1        0.0015
     18 C         141.6872  139.7365  165.1483 C.ar    1  UNL1        0.0192
     19 C         139.9693  144.3475  161.8439 C.2     1  UNL1        0.3673
     20 O         140.6542  145.6684  161.6538 O.2     1  UNL1       -0.2425
     21 O         138.4711  144.2733  161.8483 O.3     1  UNL1       -0.4440
     22 C         138.2546  144.4121  164.4337 C.3     1  UNL1        0.0513
     23 C         137.7413  143.9240  163.1114 C.3     1  UNL1        0.2090
     24 C         145.2422  141.1493  156.3899 C.ar    1  UNL1        0.0177
     25 C         145.5299  140.7308  154.9784 C.ar    1  UNL1        0.0015
     26 C         146.7063  141.3095  154.2496 C.ar    1  UNL1        0.0000
     27 C         147.5951  142.3067  154.9322 C.ar    1  UNL1        0.0000
     28 C         147.3073  142.7251  156.3436 C.ar    1  UNL1        0.0000
     29 C         146.1308  142.1465  157.0725 C.ar    1  UNL1        0.0015
     30 C         140.6037  138.8090  156.3056 C.ar    1  UNL1        0.0008
     31 C         139.4776  139.6853  155.8430 C.ar    1  UNL1        0.0000
     32 C         138.3349  139.0938  155.0721 C.ar    1  UNL1        0.0000
     33 C         138.3183  137.6259  154.7639 C.ar    1  UNL1        0.0000
     34 C         139.4443  136.7496  155.2265 C.ar    1  UNL1        0.0000
     35 C         140.5870  137.3411  155.9974 C.ar    1  UNL1        0.0000
     36 C         140.5363  138.8346  159.3048 C.1     1  UNL1        0.1035
     37 N         139.3598  138.2559  160.0335 N.1     1  UNL1       -0.1907
@<TRIPOS>BOND
     1    22    23    1
     2    23    21    1
     3    21    19    1
     4    19    20    2
     5    19     7    1
     6     7     8   ar
     7     8     9   ar
     8     9    13    1
     9    13    14   ar
    10    14    15   ar
    11    15    16   ar
    12    16    17   ar
    13    17    18   ar
    14     9    10   ar
    15    10    11    2
    16    11     1    1
    17     1     2   ar
    18     2     3   ar
    19     3    24    1
    20    24    25   ar
    21    25    26   ar
    22    26    27   ar
    23    27    28   ar
    24    28    29   ar
    25     3     4   ar
    26     4     5   ar
    27     5    30    1
    28    30    31   ar
    29    31    32   ar
    30    32    33   ar
    31    33    34   ar
    32    34    35   ar
    33     5     6   ar
    34     6    36    1
    35    36    37    3
    36    10    12   ar
    37    12     7   ar
    38    18    13   ar
    39     6     1   ar
    40    29    24   ar
    41    35    30   ar
@<TRIPOS>MOLECULE
*****
 37 41 0 0 0
SMALL
GASTEIGER

@<TRIPOS>ATOM
      1 C         142.1681  141.1147  158.5619 C.ar    1  UNL1        0.1740
      2 N         143.2476  141.8770  157.8522 N.ar    1  UNL1       -0.2259
      3 C         143.9038  141.2921  156.6368 C.ar    1  UNL1        0.0830
      4 C         143.4804  139.9450  156.1309 C.ar    1  UNL1        0.0199
      5 C         142.4009  139.1827  156.8405 C.ar    1  UNL1        0.0141
      6 C         141.7448  139.7675  158.0559 C.ar    1  UNL1        0.1042
      7 C         143.8151  141.1212  162.8476 C.ar    1  UNL1        0.2089
      8 N         142.6644  141.8456  163.4808 N.ar    1  UNL1       -0.1500
      9 N         141.6615  142.1504  162.4078 N.ar    1  UNL1       -0.2060
     10 C         142.1924  141.6144  161.1113 C.ar    1  UNL1        0.1983
     11 N         141.5119  141.6995  159.7773 N.2     1  UNL1       -0.2011
     12 S         143.5234  140.9783  161.3831 S.2     1  UNL1       -0.0214
     13 C         140.3567  142.8657  162.5978 C.ar    1  UNL1        0.0849
     14 C         139.1246  142.0933  162.9653 C.ar    1  UNL1        0.0192
     15 C         137.8199  142.8085  163.1553 C.ar    1  UNL1        0.0015
     16 C         137.7474  144.2962  162.9780 C.ar    1  UNL1        0.0001
     17 C         138.9796  145.0687  162.6105 C.ar    1  UNL1        0.0015
     18 C         140.2842  144.3534  162.4205 C.ar    1  UNL1        0.0192
     19 C         145.0421  140.6266  163.5546 C.2     1  UNL1        0.3673
     20 O         146.2805  141.4724  163.5883 O.2     1  UNL1       -0.2425
     21 O         145.0307  139.2862  164.2278 O.3     1  UNL1       -0.4440
     22 C         142.7740  138.3387  165.0996 C.3     1  UNL1        0.0513
     23 C         144.0828  139.0238  165.3603 C.3     1  UNL1        0.2090
     24 C         144.9833  142.0544  155.9271 C.ar    1  UNL1        0.0177
     25 C         146.3978  141.9874  156.4218 C.ar    1  UNL1        0.0015
     26 C         147.4773  142.7497  155.7122 C.ar    1  UNL1        0.0000
     27 C         147.1424  143.5790  154.5079 C.ar    1  UNL1        0.0000
     28 C         145.7279  143.6459  154.0133 C.ar    1  UNL1        0.0000
     29 C         144.6483  142.8836  154.7229 C.ar    1  UNL1        0.0015
     30 C         141.9776  137.8355  156.3346 C.ar    1  UNL1        0.0008
     31 C         140.8200  137.7197  155.3876 C.ar    1  UNL1        0.0000
     32 C         140.3968  136.3725  154.8817 C.ar    1  UNL1        0.0000
     33 C         141.1310  135.1411  155.3228 C.ar    1  UNL1        0.0000
     34 C         142.2885  135.2569  156.2698 C.ar    1  UNL1        0.0000
     35 C         142.7118  136.6041  156.7757 C.ar    1  UNL1        0.0000
     36 C         140.6652  139.0052  158.7656 C.1     1  UNL1        0.1035
     37 N         139.5857  138.2429  159.4752 N.1     1  UNL1       -0.1907
@<TRIPOS>BOND
     1    22    23    1
     2    23    21    1
     3    21    19    1
     4    19    20    2
     5    19     7    1
     6     7     8   ar
     7     8     9   ar
     8     9    13    1
     9    13    14   ar
    10    14    15   ar
    11    15    16   ar
    12    16    17   ar
    13    17    18   ar
    14     9    10   ar
    15    10    11    2
    16    11     1    1
    17     1     2   ar
    18     2     3   ar
    19     3    24    1
    20    24    25   ar
    21    25    26   ar
    22    26    27   ar
    23    27    28   ar
    24    28    29   ar
    25     3     4   ar
    26     4     5   ar
    27     5    30    1
    28    30    31   ar
    29    31    32   ar
    30    32    33   ar
    31    33    34   ar
    32    34    35   ar
    33     5     6   ar
    34     6    36    1
    35    36    37    3
    36    10    12   ar
    37    12     7   ar
    38    18    13   ar
    39     6     1   ar
    40    29    24   ar
    41    35    30   ar
@<TRIPOS>MOLECULE
*****
 37 41 0 0 0
SMALL
GASTEIGER

@<TRIPOS>ATOM
      1 C         141.3625  142.6687  157.7587 C.ar    1  UNL1        0.1740
      2 N         141.0247  143.7736  156.8022 N.ar    1  UNL1       -0.2259
      3 C         140.4960  145.0784  157.3199 C.ar    1  UNL1        0.0830
      4 C         140.3053  145.2783  158.7942 C.ar    1  UNL1        0.0199
      5 C         140.6431  144.1734  159.7508 C.ar    1  UNL1        0.0141
      6 C         141.1717  142.8687  159.2331 C.ar    1  UNL1        0.1042
      7 C         145.7259  141.6779  156.7295 C.ar    1  UNL1        0.2089
      8 N         145.4909  140.2609  156.2973 N.ar    1  UNL1       -0.1500
      9 N         144.0258  139.9708  156.4363 N.ar    1  UNL1       -0.2060
     10 C         143.3553  141.2085  156.9544 C.ar    1  UNL1        0.1983
     11 N         141.8912  141.3639  157.2411 N.2     1  UNL1       -0.2011
     12 S         144.4060  142.2636  157.1357 S.2     1  UNL1       -0.0214
     13 C         143.3498  138.6711  156.1137 C.ar    1  UNL1        0.0849
     14 C         142.8158  137.8090  157.2189 C.ar    1  UNL1        0.0192
     15 C         142.1399  136.5093  156.8963 C.ar    1  UNL1        0.0015
     16 C         141.9981  136.0719  155.4686 C.ar    1  UNL1        0.0001
     17 C         142.5321  136.9340  154.3634 C.ar    1  UNL1        0.0015
     18 C         143.2080  138.2336  154.6860 C.ar    1  UNL1        0.0192
     19 C         147.0485  142.3851  156.7517 C.2     1  UNL1        0.3673
     20 O         147.4378  143.2104  157.9422 O.2     1  UNL1       -0.2425
     21 O         147.9819  142.2671  155.5834 O.3     1  UNL1       -0.4440
     22 C         148.2326  142.6196  153.0215 C.3     1  UNL1        0.0513
     23 C         147.7620  143.1067  154.3600 C.3     1  UNL1        0.2090
     24 C         140.1582  146.1833  156.3634 C.ar    1  UNL1        0.0177
     25 C         140.7945  146.2205  155.0055 C.ar    1  UNL1        0.0015
     26 C         140.4567  147.3254  154.0489 C.ar    1  UNL1        0.0000
     27 C         139.4825  148.3931  154.4501 C.ar    1  UNL1        0.0000
     28 C         138.8461  148.3559  155.8080 C.ar    1  UNL1        0.0000
     29 C         139.1840  147.2510  156.7647 C.ar    1  UNL1        0.0015
     30 C         140.4523  144.3733  161.2252 C.ar    1  UNL1        0.0008
     31 C         141.5958  144.8482  162.0719 C.ar    1  UNL1        0.0000
     32 C         141.4050  145.0481  163.5462 C.ar    1  UNL1        0.0000
     33 C         140.0706  144.7732  164.1738 C.ar    1  UNL1        0.0000
     34 C         138.9271  144.2983  163.3271 C.ar    1  UNL1        0.0000
     35 C         139.1180  144.0984  161.8528 C.ar    1  UNL1        0.0000
     36 C         141.5096  141.7637  160.1897 C.1     1  UNL1        0.1035
     37 N         141.8475  140.6588  161.1463 N.1     1  UNL1       -0.1907
@<TRIPOS>BOND
     1    22    23    1
     2    23    21    1
     3    21    19    1
     4    19    20    2
     5    19     7    1
     6     7     8   ar
     7     8     9   ar
     8     9    13    1
     9    13    14   ar
    10    14    15   ar
    11    15    16   ar
    12    16    17   ar
    13    17    18   ar
    14     9    10   ar
    15    10    11    2
    16    11     1    1
    17     1     2   ar
    18     2     3   ar
    19     3    24    1
    20    24    25   ar
    21    25    26   ar
    22    26    27   ar
    23    27    28   ar
    24    28    29   ar
    25     3     4   ar
    26     4     5   ar
    27     5    30    1
    28    30    31   ar
    29    31    32   ar
    30    32    33   ar
    31    33    34   ar
    32    34    35   ar
    33     5     6   ar
    34     6    36    1
    35    36    37    3
    36    10    12   ar
    37    12     7   ar
    38    18    13   ar
    39     6     1   ar
    40    29    24   ar
    41    35    30   ar
