@<TRIPOS>MOLECULE
*****
 33 36 0 0 0
SMALL
GASTEIGER

@<TRIPOS>ATOM
      1 C         139.6681  140.5574  169.3154 C.ar    1  UNL1        0.1679
      2 C         139.3890  140.2096  167.8833 C.ar    1  UNL1        0.0733
      3 C         138.2552  139.2887  167.5424 C.ar    1  UNL1        0.1390
      4 N         137.4005  138.7155  168.6337 N.ar    1  UNL1       -0.2088
      5 C         137.6795  139.0633  170.0658 C.ar    1  UNL1        0.2001
      6 N         138.8133  139.9842  170.4067 N.ar    1  UNL1       -0.2047
      7 C         144.5184  142.5900  169.7886 C.3     1  UNL1        0.0540
      8 C         143.0314  142.4127  169.8739 C.ar    1  UNL1        0.0805
      9 C         142.0621  143.3786  170.4883 C.ar    1  UNL1        0.0312
     10 C         140.6842  142.8011  170.3539 C.ar    1  UNL1        0.0637
     11 C         139.4120  143.4351  170.8329 C.3     1  UNL1        0.0522
     12 N         140.8020  141.4784  169.6564 N.ar    1  UNL1       -0.2164
     13 N         142.2526  141.2383  169.3597 N.ar    1  UNL1       -0.1684
     14 C         136.8248  138.4901  171.1571 C.ar    1  UNL1        0.1805
     15 C         135.5161  139.0454  171.6357 C.ar    1  UNL1        0.0434
     16 C         135.0111  138.1595  172.7357 C.ar    1  UNL1        0.0362
     17 C         136.0077  137.0566  172.9370 C.ar    1  UNL1        0.1234
     18 C         135.9020  135.9446  173.9382 C.3     1  UNL1        0.0725
     19 O         137.1285  137.2610  171.9614 O.2     1  UNL1       -0.4546
     20 N         137.9761  138.9409  166.1102 N.am    1  UNL1       -0.2681
     21 C         139.1100  138.6255  165.1803 C.2     1  UNL1        0.2435
     22 O         140.5231  138.6580  165.6826 O.2     1  UNL1       -0.2732
     23 H         137.0487  138.9196  165.7805 H       1  UNL1        0.1563
     24 C         138.8310  138.2777  163.7481 C.3     1  UNL1        0.1588
     25 N         138.6454  139.3674  162.7341 N.3     1  UNL1       -0.2650
     26 C         137.7801  139.2955  161.5110 C.3     1  UNL1        0.0726
     27 C         137.8924  140.6039  160.7861 C.3     1  UNL1        0.0201
     28 C         138.8271  141.4845  161.5613 C.3     1  UNL1        0.0334
     29 C         139.2925  140.7202  162.7652 C.3     1  UNL1        0.0739
     30 C         139.2264  142.8836  161.1966 C.3     1  UNL1        0.0736
     31 N         138.8427  144.0289  162.0859 N.3     1  UNL1       -0.2703
     32 C         139.6140  145.3142  162.0284 C.3     1  UNL1        0.0897
     33 C         137.6878  143.8891  163.0329 C.3     1  UNL1        0.0897
@<TRIPOS>BOND
     1     7     8    1
     2     8     9   ar
     3     9    10   ar
     4    10    11    1
     5    10    12   ar
     6    12     1    1
     7     1     2   ar
     8     2     3   ar
     9     3    20    1
    10    20    21   am
    11    21    22    2
    12    21    24    1
    13    24    25    1
    14    25    26    1
    15    26    27    1
    16    27    28    1
    17    28    30    1
    18    30    31    1
    19    31    32    1
    20    31    33    1
    21    28    29    1
    22     3     4   ar
    23     4     5   ar
    24     5    14    1
    25    14    15   ar
    26    15    16   ar
    27    16    17   ar
    28    17    18    1
    29    17    19   ar
    30     5     6   ar
    31    12    13   ar
    32    13     8   ar
    33     6     1   ar
    34    29    25    1
    35    19    14   ar
    36    20    23    1
@<TRIPOS>MOLECULE
*****
 33 36 0 0 0
SMALL
GASTEIGER

@<TRIPOS>ATOM
      1 C         142.3111  137.4807  157.5301 C.ar    1  UNL1        0.1679
      2 C         141.1778  137.7605  158.4721 C.ar    1  UNL1        0.0733
      3 C         141.1062  139.0758  159.1895 C.ar    1  UNL1        0.1390
      4 N         142.1678  140.1114  158.9649 N.ar    1  UNL1       -0.2088
      5 C         143.3011  139.8317  158.0229 C.ar    1  UNL1        0.2001
      6 N         143.3727  138.5163  157.3055 N.ar    1  UNL1       -0.2047
      7 C         143.8424  132.6547  156.0314 C.3     1  UNL1        0.0540
      8 C         143.0866  133.9471  156.1238 C.ar    1  UNL1        0.0805
      9 C         141.8993  134.3354  155.2933 C.ar    1  UNL1        0.0312
     10 C         141.4643  135.7063  155.7191 C.ar    1  UNL1        0.0637
     11 C         140.3130  136.4821  155.1510 C.3     1  UNL1        0.0522
     12 N         142.3827  136.1653  156.8126 N.ar    1  UNL1       -0.2164
     13 N         143.3854  135.0781  157.0627 N.ar    1  UNL1       -0.1684
     14 C         144.3628  140.8672  157.7984 C.ar    1  UNL1        0.1805
     15 C         144.5569  142.1195  158.6010 C.ar    1  UNL1        0.0434
     16 C         145.7308  142.8586  158.0305 C.ar    1  UNL1        0.0362
     17 C         146.2624  142.0631  156.8752 C.ar    1  UNL1        0.1234
     18 C         147.4337  142.4333  156.0144 C.3     1  UNL1        0.0725
     19 O         145.4169  140.8324  156.7317 O.2     1  UNL1       -0.4546
     20 N         139.9728  139.3556  160.1315 N.am    1  UNL1       -0.2681
     21 C         138.6304  139.7528  159.5928 C.2     1  UNL1        0.2435
     22 O         138.4214  139.8701  158.1120 O.2     1  UNL1       -0.2732
     23 H         140.1101  139.2786  161.1033 H       1  UNL1        0.1563
     24 C         137.4971  140.0326  160.5347 C.3     1  UNL1        0.1588
     25 N         137.6443  141.0848  161.5935 N.3     1  UNL1       -0.2650
     26 C         137.4441  140.8871  163.0669 C.3     1  UNL1        0.0726
     27 C         137.6936  142.1996  163.7489 C.3     1  UNL1        0.0201
     28 C         138.0480  143.2086  162.6970 C.3     1  UNL1        0.0334
     29 C         138.0175  142.5196  161.3649 C.3     1  UNL1        0.0739
     30 C         138.3754  144.6529  162.9353 C.3     1  UNL1        0.0736
     31 N         139.7499  145.1704  162.6310 N.3     1  UNL1       -0.2703
     32 C         140.8999  144.8162  163.5266 C.3     1  UNL1        0.0897
     33 C         139.9746  146.0422  161.4312 C.3     1  UNL1        0.0897
@<TRIPOS>BOND
     1     7     8    1
     2     8     9   ar
     3     9    10   ar
     4    10    11    1
     5    10    12   ar
     6    12     1    1
     7     1     2   ar
     8     2     3   ar
     9     3    20    1
    10    20    21   am
    11    21    22    2
    12    21    24    1
    13    24    25    1
    14    25    26    1
    15    26    27    1
    16    27    28    1
    17    28    30    1
    18    30    31    1
    19    31    32    1
    20    31    33    1
    21    28    29    1
    22     3     4   ar
    23     4     5   ar
    24     5    14    1
    25    14    15   ar
    26    15    16   ar
    27    16    17   ar
    28    17    18    1
    29    17    19   ar
    30     5     6   ar
    31    12    13   ar
    32    13     8   ar
    33     6     1   ar
    34    29    25    1
    35    19    14   ar
    36    20    23    1
@<TRIPOS>MOLECULE
*****
 33 36 0 0 0
SMALL
GASTEIGER

@<TRIPOS>ATOM
      1 C         142.3647  136.7570  156.6950 C.ar    1  UNL1        0.1679
      2 C         141.0545  137.3195  157.1605 C.ar    1  UNL1        0.0733
      3 C         140.9004  138.7987  157.3559 C.ar    1  UNL1        0.1390
      4 N         142.0565  139.7154  157.0857 N.ar    1  UNL1       -0.2088
      5 C         143.3668  139.1529  156.6202 C.ar    1  UNL1        0.2001
      6 N         143.5209  137.6737  156.4248 N.ar    1  UNL1       -0.2047
      7 C         143.7660  131.7163  157.4087 C.3     1  UNL1        0.0540
      8 C         143.1630  132.9608  156.8277 C.ar    1  UNL1        0.0805
      9 C         142.3492  133.0421  155.5701 C.ar    1  UNL1        0.0312
     10 C         141.9512  134.4741  155.3674 C.ar    1  UNL1        0.0637
     11 C         141.1297  135.0085  154.2319 C.3     1  UNL1        0.0522
     12 N         142.5189  135.2778  156.4996 N.ar    1  UNL1       -0.2164
     13 N         143.2678  134.3425  157.4021 N.ar    1  UNL1       -0.1684
     14 C         144.5229  140.0696  156.3501 C.ar    1  UNL1        0.1805
     15 C         145.3205  140.1325  155.0813 C.ar    1  UNL1        0.0434
     16 C         146.3750  141.1861  155.2483 C.ar    1  UNL1        0.0362
     17 C         146.2291  141.7744  156.6204 C.ar    1  UNL1        0.1234
     18 C         147.0787  142.8619  157.2083 C.3     1  UNL1        0.0725
     19 O         145.0845  141.0844  157.3013 O.2     1  UNL1       -0.4546
     20 N         139.5900  139.3612  157.8214 N.am    1  UNL1       -0.2681
     21 C         139.3442  139.5770  159.2853 C.2     1  UNL1        0.2435
     22 O         140.4087  139.2301  160.2837 O.2     1  UNL1       -0.2732
     23 H         138.8914  139.5889  157.1661 H       1  UNL1        0.1563
     24 C         138.0339  140.1395  159.7509 C.3     1  UNL1        0.1588
     25 N         137.9875  141.0380  160.9511 N.3     1  UNL1       -0.2650
     26 C         137.6295  140.6254  162.3481 C.3     1  UNL1        0.0726
     27 C         137.7117  141.8392  163.2255 C.3     1  UNL1        0.0201
     28 C         138.1206  143.0021  162.3707 C.3     1  UNL1        0.0334
     29 C         138.2910  142.5069  160.9651 C.3     1  UNL1        0.0739
     30 C         138.3233  144.4125  162.8393 C.3     1  UNL1        0.0736
     31 N         139.2065  144.6912  164.0192 N.3     1  UNL1       -0.2703
     32 C         138.6065  144.8458  165.3852 C.3     1  UNL1        0.0897
     33 C         140.6898  144.8152  163.8332 C.3     1  UNL1        0.0897
@<TRIPOS>BOND
     1     7     8    1
     2     8     9   ar
     3     9    10   ar
     4    10    11    1
     5    10    12   ar
     6    12     1    1
     7     1     2   ar
     8     2     3   ar
     9     3    20    1
    10    20    21   am
    11    21    22    2
    12    21    24    1
    13    24    25    1
    14    25    26    1
    15    26    27    1
    16    27    28    1
    17    28    30    1
    18    30    31    1
    19    31    32    1
    20    31    33    1
    21    28    29    1
    22     3     4   ar
    23     4     5   ar
    24     5    14    1
    25    14    15   ar
    26    15    16   ar
    27    16    17   ar
    28    17    18    1
    29    17    19   ar
    30     5     6   ar
    31    12    13   ar
    32    13     8   ar
    33     6     1   ar
    34    29    25    1
    35    19    14   ar
    36    20    23    1
@<TRIPOS>MOLECULE
*****
 33 36 0 0 0
SMALL
GASTEIGER

@<TRIPOS>ATOM
      1 C         143.4944  136.1930  156.3652 C.ar    1  UNL1        0.1679
      2 C         142.5887  136.6775  157.4583 C.ar    1  UNL1        0.0733
      3 C         142.5216  138.1403  157.7834 C.ar    1  UNL1        0.1390
      4 N         143.3601  139.1186  157.0153 N.ar    1  UNL1       -0.2088
      5 C         144.2658  138.6341  155.9222 C.ar    1  UNL1        0.2001
      6 N         144.3329  137.1713  155.5971 N.ar    1  UNL1       -0.2047
      7 C         144.5572  131.0287  156.6510 C.3     1  UNL1        0.0540
      8 C         144.0501  132.3564  156.1714 C.ar    1  UNL1        0.0805
      9 C         143.2798  132.6019  154.9079 C.ar    1  UNL1        0.0312
     10 C         142.9779  134.0690  154.8267 C.ar    1  UNL1        0.0637
     11 C         142.2245  134.7544  153.7255 C.3     1  UNL1        0.0522
     12 N         143.5616  134.7302  156.0400 N.ar    1  UNL1       -0.2164
     13 N         144.2242  133.6718  156.8710 N.ar    1  UNL1       -0.1684
     14 C         145.1043  139.6123  155.1542 C.ar    1  UNL1        0.1805
     15 C         145.1575  139.7465  153.6612 C.ar    1  UNL1        0.0434
     16 C         146.1229  140.8453  153.3286 C.ar    1  UNL1        0.0362
     17 C         146.6665  141.3902  154.6161 C.ar    1  UNL1        0.1234
     18 C         147.6644  142.5019  154.7515 C.3     1  UNL1        0.0725
     19 O         146.0369  140.6282  155.7443 O.2     1  UNL1       -0.4546
     20 N         141.6158  138.6249  158.8765 N.am    1  UNL1       -0.2681
     21 C         140.1275  138.5442  158.7083 C.2     1  UNL1        0.2435
     22 O         139.5449  137.9789  157.4469 O.2     1  UNL1       -0.2732
     23 H         141.9983  138.9959  159.7044 H       1  UNL1        0.1563
     24 C         139.2218  139.0287  159.8013 C.3     1  UNL1        0.1588
     25 N         139.3535  138.4703  161.1873 N.3     1  UNL1       -0.2650
     26 C         138.2238  138.0437  162.0770 C.3     1  UNL1        0.0726
     27 C         138.8101  137.5501  163.3664 C.3     1  UNL1        0.0201
     28 C         140.3023  137.6716  163.2736 C.3     1  UNL1        0.0334
     29 C         140.6381  138.2403  161.9268 C.3     1  UNL1        0.0739
     30 C         141.2860  137.2913  164.3402 C.3     1  UNL1        0.0736
     31 N         141.7769  138.3243  165.3105 N.3     1  UNL1       -0.2703
     32 C         140.8681  139.4347  165.7475 C.3     1  UNL1        0.0897
     33 C         143.1768  138.2472  165.8439 C.3     1  UNL1        0.0897
@<TRIPOS>BOND
     1     7     8    1
     2     8     9   ar
     3     9    10   ar
     4    10    11    1
     5    10    12   ar
     6    12     1    1
     7     1     2   ar
     8     2     3   ar
     9     3    20    1
    10    20    21   am
    11    21    22    2
    12    21    24    1
    13    24    25    1
    14    25    26    1
    15    26    27    1
    16    27    28    1
    17    28    30    1
    18    30    31    1
    19    31    32    1
    20    31    33    1
    21    28    29    1
    22     3     4   ar
    23     4     5   ar
    24     5    14    1
    25    14    15   ar
    26    15    16   ar
    27    16    17   ar
    28    17    18    1
    29    17    19   ar
    30     5     6   ar
    31    12    13   ar
    32    13     8   ar
    33     6     1   ar
    34    29    25    1
    35    19    14   ar
    36    20    23    1
@<TRIPOS>MOLECULE
*****
 33 36 0 0 0
SMALL
GASTEIGER

@<TRIPOS>ATOM
      1 C         139.6695  140.5528  169.2885 C.ar    1  UNL1        0.1679
      2 C         139.4015  140.1885  167.8584 C.ar    1  UNL1        0.0733
      3 C         138.2724  139.2609  167.5197 C.ar    1  UNL1        0.1390
      4 N         137.4113  138.6977  168.6112 N.ar    1  UNL1       -0.2088
      5 C         137.6793  139.0620  170.0413 C.ar    1  UNL1        0.2001
      6 N         138.8084  139.9896  170.3800 N.ar    1  UNL1       -0.2047
      7 C         144.5060  142.6252  169.7303 C.3     1  UNL1        0.0540
      8 C         143.0217  142.4330  169.8303 C.ar    1  UNL1        0.0805
      9 C         142.0505  143.3827  170.4667 C.ar    1  UNL1        0.0312
     10 C         140.6766  142.7940  170.3411 C.ar    1  UNL1        0.0637
     11 C         139.4041  143.4106  170.8416 C.3     1  UNL1        0.0522
     12 N         140.7986  141.4804  169.6272 N.ar    1  UNL1       -0.2164
     13 N         142.2479  141.2573  169.3115 N.ar    1  UNL1       -0.1684
     14 C         136.8183  138.4988  171.1328 C.ar    1  UNL1        0.1805
     15 C         135.5108  139.0630  171.6042 C.ar    1  UNL1        0.0434
     16 C         134.9980  138.1854  172.7073 C.ar    1  UNL1        0.0362
     17 C         135.9885  137.0788  172.9177 C.ar    1  UNL1        0.1234
     18 C         135.8741  135.9727  173.9244 C.3     1  UNL1        0.0725
     19 O         137.1135  137.2725  171.9446 O.2     1  UNL1       -0.4546
     20 N         138.0043  138.8965  166.0895 N.am    1  UNL1       -0.2681
     21 C         139.1382  138.4983  165.1918 C.2     1  UNL1        0.2435
     22 O         140.5401  138.4646  165.7243 O.2     1  UNL1       -0.2732
     23 H         137.0842  138.9187  165.7400 H       1  UNL1        0.1563
     24 C         138.8702  138.1339  163.7617 C.3     1  UNL1        0.1588
     25 N         139.3294  139.0402  162.6581 N.3     1  UNL1       -0.2650
     26 C         139.2905  140.5396  162.6747 C.3     1  UNL1        0.0726
     27 C         139.8452  141.0322  161.3710 C.3     1  UNL1        0.0201
     28 C         140.2269  139.8372  160.5486 C.3     1  UNL1        0.0334
     29 C         139.9081  138.6061  161.3441 C.3     1  UNL1        0.0739
     30 C         140.8227  139.8680  159.1724 C.3     1  UNL1        0.0736
     31 N         141.1207  138.5847  158.4553 N.3     1  UNL1       -0.2703
     32 C         142.4520  137.9172  158.6343 C.3     1  UNL1        0.0897
     33 C         140.0874  137.9688  157.5592 C.3     1  UNL1        0.0897
@<TRIPOS>BOND
     1     7     8    1
     2     8     9   ar
     3     9    10   ar
     4    10    11    1
     5    10    12   ar
     6    12     1    1
     7     1     2   ar
     8     2     3   ar
     9     3    20    1
    10    20    21   am
    11    21    22    2
    12    21    24    1
    13    24    25    1
    14    25    26    1
    15    26    27    1
    16    27    28    1
    17    28    30    1
    18    30    31    1
    19    31    32    1
    20    31    33    1
    21    28    29    1
    22     3     4   ar
    23     4     5   ar
    24     5    14    1
    25    14    15   ar
    26    15    16   ar
    27    16    17   ar
    28    17    18    1
    29    17    19   ar
    30     5     6   ar
    31    12    13   ar
    32    13     8   ar
    33     6     1   ar
    34    29    25    1
    35    19    14   ar
    36    20    23    1
@<TRIPOS>MOLECULE
*****
 33 36 0 0 0
SMALL
GASTEIGER

@<TRIPOS>ATOM
      1 C         143.3785  139.1748  156.7545 C.ar    1  UNL1        0.1679
      2 C         142.0271  139.6252  157.2242 C.ar    1  UNL1        0.0733
      3 C         140.9224  138.6257  157.3991 C.ar    1  UNL1        0.1390
      4 N         141.1691  137.1758  157.1043 N.ar    1  UNL1       -0.2088
      5 C         142.5206  136.7254  156.6346 C.ar    1  UNL1        0.2001
      6 N         143.6253  137.7249  156.4597 N.ar    1  UNL1       -0.2047
      7 C         147.4964  141.8110  154.7609 C.3     1  UNL1        0.0540
      8 C         146.3761  141.3861  155.6632 C.ar    1  UNL1        0.0805
      9 C         145.9905  142.0387  156.9577 C.ar    1  UNL1        0.0312
     10 C         144.8207  141.2898  157.5239 C.ar    1  UNL1        0.0637
     11 C         144.1127  141.6017  158.8090 C.3     1  UNL1        0.0522
     12 N         144.4833  140.1743  156.5796 N.ar    1  UNL1       -0.2164
     13 N         145.4445  140.2338  155.4296 N.ar    1  UNL1       -0.1684
     14 C         142.7673  135.2756  156.3397 C.ar    1  UNL1        0.1805
     15 C         141.8359  134.3531  155.6106 C.ar    1  UNL1        0.0434
     16 C         142.4817  133.0010  155.5425 C.ar    1  UNL1        0.0362
     17 C         143.8123  133.0877  156.2295 C.ar    1  UNL1        0.1234
     18 C         144.7941  131.9658  156.3948 C.3     1  UNL1        0.0725
     19 O         143.9888  134.4935  156.7222 O.2     1  UNL1       -0.4546
     20 N         139.5708  139.0761  157.8689 N.am    1  UNL1       -0.2681
     21 C         139.4136  139.6791  159.2333 C.2     1  UNL1        0.2435
     22 O         140.6079  139.8316  160.1280 O.2     1  UNL1       -0.2732
     23 H         138.7870  138.9760  157.2816 H       1  UNL1        0.1563
     24 C         138.0622  140.1294  159.7031 C.3     1  UNL1        0.1588
     25 N         137.9380  140.9551  160.9492 N.3     1  UNL1       -0.2650
     26 C         137.6438  140.4357  162.3253 C.3     1  UNL1        0.0726
     27 C         137.6103  141.6047  163.2647 C.3     1  UNL1        0.0201
     28 C         137.8838  142.8466  162.4691 C.3     1  UNL1        0.0334
     29 C         138.0864  142.4451  161.0381 C.3     1  UNL1        0.0739
     30 C         137.9441  144.2445  163.0096 C.3     1  UNL1        0.0736
     31 N         139.2610  144.9566  163.1022 N.3     1  UNL1       -0.2703
     32 C         139.6752  145.9110  162.0217 C.3     1  UNL1        0.0897
     33 C         140.1638  144.7144  164.2754 C.3     1  UNL1        0.0897
@<TRIPOS>BOND
     1     7     8    1
     2     8     9   ar
     3     9    10   ar
     4    10    11    1
     5    10    12   ar
     6    12     1    1
     7     1     2   ar
     8     2     3   ar
     9     3    20    1
    10    20    21   am
    11    21    22    2
    12    21    24    1
    13    24    25    1
    14    25    26    1
    15    26    27    1
    16    27    28    1
    17    28    30    1
    18    30    31    1
    19    31    32    1
    20    31    33    1
    21    28    29    1
    22     3     4   ar
    23     4     5   ar
    24     5    14    1
    25    14    15   ar
    26    15    16   ar
    27    16    17   ar
    28    17    18    1
    29    17    19   ar
    30     5     6   ar
    31    12    13   ar
    32    13     8   ar
    33     6     1   ar
    34    29    25    1
    35    19    14   ar
    36    20    23    1
@<TRIPOS>MOLECULE
*****
 33 36 0 0 0
SMALL
GASTEIGER

@<TRIPOS>ATOM
      1 C         139.5466  146.0349  156.6992 C.ar    1  UNL1        0.1679
      2 C         140.2482  145.9921  158.0243 C.ar    1  UNL1        0.0733
      3 C         140.3289  144.7041  158.7889 C.ar    1  UNL1        0.1390
      4 N         139.7081  143.4590  158.2283 N.ar    1  UNL1       -0.2088
      5 C         139.0065  143.5018  156.9032 C.ar    1  UNL1        0.2001
      6 N         138.9258  144.7898  156.1387 N.ar    1  UNL1       -0.2047
      7 C         138.4673  151.0324  155.3795 C.3     1  UNL1        0.0540
      8 C         138.9698  149.6200  155.3280 C.ar    1  UNL1        0.0805
      9 C         139.7135  148.9898  154.1879 C.ar    1  UNL1        0.0312
     10 C         140.0201  147.5701  154.5628 C.ar    1  UNL1        0.0637
     11 C         140.7524  146.5728  153.7149 C.3     1  UNL1        0.0522
     12 N         139.4659  147.3229  155.9346 N.ar    1  UNL1       -0.2164
     13 N         138.8168  148.5898  156.4075 N.ar    1  UNL1       -0.1684
     14 C         138.3856  142.2567  156.3427 C.ar    1  UNL1        0.1805
     15 C         136.9296  142.0550  156.0440 C.ar    1  UNL1        0.0434
     16 C         136.7558  140.6683  155.4991 C.ar    1  UNL1        0.0362
     17 C         138.1046  140.0130  155.4610 C.ar    1  UNL1        0.1234
     18 C         138.3951  138.6204  154.9852 C.3     1  UNL1        0.0725
     19 O         139.1118  140.9946  155.9824 O.2     1  UNL1       -0.4546
     20 N         141.0305  144.6612  160.1140 N.am    1  UNL1       -0.2681
     21 C         140.5037  145.4621  161.2678 C.2     1  UNL1        0.2435
     22 O         139.2754  146.3058  161.0964 O.2     1  UNL1       -0.2732
     23 H         141.8367  144.1075  160.2265 H       1  UNL1        0.1563
     24 C         141.2053  145.4192  162.5929 C.3     1  UNL1        0.1588
     25 N         140.5984  144.6651  163.7388 N.3     1  UNL1       -0.2650
     26 C         139.1993  144.8233  164.2561 C.3     1  UNL1        0.0726
     27 C         139.0202  143.8764  165.4056 C.3     1  UNL1        0.0201
     28 C         140.3087  143.1331  165.5988 C.3     1  UNL1        0.0334
     29 C         141.2840  143.6205  164.5687 C.3     1  UNL1        0.0739
     30 C         140.5750  142.0861  166.6394 C.3     1  UNL1        0.0736
     31 N         141.2887  142.4527  167.9067 N.3     1  UNL1       -0.2703
     32 C         142.7435  142.1258  168.0696 C.3     1  UNL1        0.0897
     33 C         140.5476  143.1463  169.0111 C.3     1  UNL1        0.0897
@<TRIPOS>BOND
     1     7     8    1
     2     8     9   ar
     3     9    10   ar
     4    10    11    1
     5    10    12   ar
     6    12     1    1
     7     1     2   ar
     8     2     3   ar
     9     3    20    1
    10    20    21   am
    11    21    22    2
    12    21    24    1
    13    24    25    1
    14    25    26    1
    15    26    27    1
    16    27    28    1
    17    28    30    1
    18    30    31    1
    19    31    32    1
    20    31    33    1
    21    28    29    1
    22     3     4   ar
    23     4     5   ar
    24     5    14    1
    25    14    15   ar
    26    15    16   ar
    27    16    17   ar
    28    17    18    1
    29    17    19   ar
    30     5     6   ar
    31    12    13   ar
    32    13     8   ar
    33     6     1   ar
    34    29    25    1
    35    19    14   ar
    36    20    23    1
@<TRIPOS>MOLECULE
*****
 33 36 0 0 0
SMALL
GASTEIGER

@<TRIPOS>ATOM
      1 C         141.2299  141.6073  159.8084 C.ar    1  UNL1        0.1679
      2 C         142.0566  140.6992  158.9471 C.ar    1  UNL1        0.0733
      3 C         142.2058  139.2516  159.3104 C.ar    1  UNL1        0.1390
      4 N         141.5283  138.7120  160.5351 N.ar    1  UNL1       -0.2088
      5 C         140.7016  139.6201  161.3965 C.ar    1  UNL1        0.2001
      6 N         140.5524  141.0677  161.0331 N.ar    1  UNL1       -0.2047
      7 C         140.0298  146.0276  157.1813 C.3     1  UNL1        0.0540
      8 C         140.5290  145.0867  158.2375 C.ar    1  UNL1        0.0805
      9 C         141.1729  145.4786  159.5344 C.ar    1  UNL1        0.0312
     10 C         141.5138  144.2229  160.2806 C.ar    1  UNL1        0.0637
     11 C         142.1723  144.1482  161.6263 C.3     1  UNL1        0.0522
     12 N         141.0806  143.0550  159.4450 N.ar    1  UNL1       -0.2164
     13 N         140.4720  143.5888  158.1823 N.ar    1  UNL1       -0.1684
     14 C         140.0241  139.0805  162.6212 C.ar    1  UNL1        0.1805
     15 C         139.8339  137.6311  162.9573 C.ar    1  UNL1        0.0434
     16 C         139.1101  137.5504  164.2686 C.ar    1  UNL1        0.0362
     17 C         138.8530  138.9500  164.7430 C.ar    1  UNL1        0.1234
     18 C         138.1537  139.3362  166.0126 C.3     1  UNL1        0.0725
     19 O         139.4178  139.8957  163.7248 O.2     1  UNL1       -0.4546
     20 N         143.0326  138.3434  158.4491 N.am    1  UNL1       -0.2681
     21 C         142.3811  137.5462  157.3583 C.2     1  UNL1        0.2435
     22 O         140.9029  137.6571  157.1287 O.2     1  UNL1       -0.2732
     23 H         144.0028  138.2707  158.5998 H       1  UNL1        0.1563
     24 C         143.2078  136.6381  156.4969 C.3     1  UNL1        0.1588
     25 N         142.8233  135.1965  156.3417 N.3     1  UNL1       -0.2650
     26 C         141.7486  134.6626  155.4417 C.3     1  UNL1        0.0726
     27 C         141.7071  133.1719  155.6029 C.3     1  UNL1        0.0201
     28 C         142.7562  132.7844  156.6025 C.3     1  UNL1        0.0334
     29 C         143.4460  134.0357  157.0591 C.3     1  UNL1        0.0739
     30 C         143.0618  131.3904  157.0645 C.3     1  UNL1        0.0736
     31 N         143.3079  130.3044  156.0596 N.3     1  UNL1       -0.2703
     32 C         142.2783  129.2353  155.8434 C.3     1  UNL1        0.0897
     33 C         144.5838  130.2873  155.2710 C.3     1  UNL1        0.0897
@<TRIPOS>BOND
     1     7     8    1
     2     8     9   ar
     3     9    10   ar
     4    10    11    1
     5    10    12   ar
     6    12     1    1
     7     1     2   ar
     8     2     3   ar
     9     3    20    1
    10    20    21   am
    11    21    22    2
    12    21    24    1
    13    24    25    1
    14    25    26    1
    15    26    27    1
    16    27    28    1
    17    28    30    1
    18    30    31    1
    19    31    32    1
    20    31    33    1
    21    28    29    1
    22     3     4   ar
    23     4     5   ar
    24     5    14    1
    25    14    15   ar
    26    15    16   ar
    27    16    17   ar
    28    17    18    1
    29    17    19   ar
    30     5     6   ar
    31    12    13   ar
    32    13     8   ar
    33     6     1   ar
    34    29    25    1
    35    19    14   ar
    36    20    23    1
@<TRIPOS>MOLECULE
*****
 33 36 0 0 0
SMALL
GASTEIGER

@<TRIPOS>ATOM
      1 C         137.2307  140.8748  156.6977 C.ar    1  UNL1        0.1679
      2 C         137.7478  142.1428  157.3097 C.ar    1  UNL1        0.0733
      3 C         139.1866  142.2445  157.7213 C.ar    1  UNL1        0.1390
      4 N         140.1083  141.0781  157.5208 N.ar    1  UNL1       -0.2088
      5 C         139.5911  139.8101  156.9088 C.ar    1  UNL1        0.2001
      6 N         138.1523  139.7084  156.4973 N.ar    1  UNL1       -0.2047
      7 C         132.1105  139.5869  156.6132 C.3     1  UNL1        0.0540
      8 C         133.4384  140.1811  156.2472 C.ar    1  UNL1        0.0805
      9 C         133.7169  141.0521  155.0581 C.ar    1  UNL1        0.0312
     10 C         135.1714  141.4179  155.0822 C.ar    1  UNL1        0.0637
     11 C         135.8810  142.2776  154.0785 C.3     1  UNL1        0.0522
     12 N         135.7918  140.7731  156.2861 N.ar    1  UNL1       -0.2164
     13 N         134.7207  140.0087  157.0061 N.ar    1  UNL1       -0.1684
     14 C         140.5127  138.6437  156.7084 C.ar    1  UNL1        0.1805
     15 C         141.9566  138.5817  157.1100 C.ar    1  UNL1        0.0434
     16 C         142.4886  137.2342  156.7210 C.ar    1  UNL1        0.0362
     17 C         141.3735  136.4634  156.0789 C.ar    1  UNL1        0.1234
     18 C         141.4636  135.0667  155.5393 C.3     1  UNL1        0.0725
     19 O         140.1523  137.3345  156.0711 O.2     1  UNL1       -0.4546
     20 N         139.7039  143.5125  158.3333 N.am    1  UNL1       -0.2681
     21 C         139.6589  143.7001  159.8209 C.2     1  UNL1        0.2435
     22 O         139.0966  142.6196  160.6964 O.2     1  UNL1       -0.2732
     23 H         140.0729  144.2217  157.7587 H       1  UNL1        0.1563
     24 C         140.1761  144.9681  160.4329 C.3     1  UNL1        0.1588
     25 N         141.1319  144.9082  161.5874 N.3     1  UNL1       -0.2650
     26 C         140.9107  145.5018  162.9470 C.3     1  UNL1        0.0726
     27 C         142.1189  145.2047  163.7848 C.3     1  UNL1        0.0201
     28 C         143.0869  144.4273  162.9430 C.3     1  UNL1        0.0334
     29 C         142.4769  144.2440  161.5849 C.3     1  UNL1        0.0739
     30 C         144.4291  143.9218  163.3821 C.3     1  UNL1        0.0736
     31 N         144.5629  142.5360  163.9400 N.3     1  UNL1       -0.2703
     32 C         143.6383  142.0723  165.0263 C.3     1  UNL1        0.0897
     33 C         145.6213  141.6136  163.4116 C.3     1  UNL1        0.0897
@<TRIPOS>BOND
     1     7     8    1
     2     8     9   ar
     3     9    10   ar
     4    10    11    1
     5    10    12   ar
     6    12     1    1
     7     1     2   ar
     8     2     3   ar
     9     3    20    1
    10    20    21   am
    11    21    22    2
    12    21    24    1
    13    24    25    1
    14    25    26    1
    15    26    27    1
    16    27    28    1
    17    28    30    1
    18    30    31    1
    19    31    32    1
    20    31    33    1
    21    28    29    1
    22     3     4   ar
    23     4     5   ar
    24     5    14    1
    25    14    15   ar
    26    15    16   ar
    27    16    17   ar
    28    17    18    1
    29    17    19   ar
    30     5     6   ar
    31    12    13   ar
    32    13     8   ar
    33     6     1   ar
    34    29    25    1
    35    19    14   ar
    36    20    23    1
