@<TRIPOS>MOLECULE
*****
 31 34 0 0 0
SMALL
GASTEIGER

@<TRIPOS>ATOM
      1 C         139.1032  139.0085  161.1750 C.3     1  UNL1        0.0722
      2 N         140.2143  139.5464  165.5024 N.pl3   1  UNL1       -0.3075
      3 C         140.2310  140.7228  164.5719 C.3     1  UNL1        0.0908
      4 C         139.8607  140.5435  163.1295 C.3     1  UNL1        0.0229
      5 C         139.4736  139.1877  162.6174 C.3     1  UNL1        0.0194
      6 C         139.4568  138.0113  163.5479 C.3     1  UNL1        0.0229
      7 C         139.8272  138.1907  164.9904 C.3     1  UNL1        0.0908
      8 C         142.0187  139.6145  167.3704 C.ar    1  UNL1        0.0273
      9 C         142.3890  139.7938  168.8128 C.ar    1  UNL1        0.0024
     10 C         141.3253  140.0844  169.8297 C.ar    1  UNL1        0.0001
     11 C         139.8913  140.1956  169.4042 C.ar    1  UNL1        0.0013
     12 C         139.5210  140.0163  167.9618 C.ar    1  UNL1        0.0146
     13 C         140.5847  139.7257  166.9449 C.ar    1  UNL1        0.0489
     14 O         143.5848  140.4188  165.4598 O.co2   1  UNL1       -0.5446
     15 C         143.0824  139.3239  166.3535 C.2     1  UNL1        0.0741
     16 O         143.6438  137.9384  166.2303 O.co2   1  UNL1       -0.5446
     17 N         140.1493  138.6119  160.1758 N.3     1  UNL1       -0.2724
     18 C         139.7913  138.4876  158.7245 C.3     1  UNL1        0.0758
     19 C         140.8374  138.0911  157.7252 C.3     1  UNL1        0.0609
     20 C         142.2414  137.8188  158.1773 C.3     1  UNL1        0.1687
     21 C         142.5994  137.9431  159.6286 C.3     1  UNL1        0.0609
     22 C         141.5533  138.3397  160.6278 C.3     1  UNL1        0.0758
     23 O         143.2875  137.4223  157.1781 O.3     1  UNL1       -0.4790
     24 C         143.1230  136.1631  156.3797 C.ar    1  UNL1        0.1393
     25 C         142.8711  136.2390  154.9029 C.ar    1  UNL1        0.0378
     26 C         142.7066  134.9798  154.1045 C.ar    1  UNL1        0.0154
     27 C         142.7940  133.6448  154.7828 C.ar    1  UNL1        0.0684
     28 CL        142.6294  132.3856  153.9843 Cl      1  UNL1       -0.0814
     29 C         143.0458  133.5689  156.2595 C.ar    1  UNL1        0.0712
     30 CL        143.1331  132.2339  156.9379 Cl      1  UNL1       -0.0813
     31 C         143.2103  134.8281  157.0580 C.ar    1  UNL1        0.0491
@<TRIPOS>UNITY_ATOM_ATTR
14 1
charge -1
@<TRIPOS>BOND
     1    14    15   ar
     2    15    16   ar
     3    15     8    1
     4     8     9   ar
     5     9    10   ar
     6    10    11   ar
     7    11    12   ar
     8    12    13   ar
     9    13     2    1
    10     2     3    1
    11     3     4    1
    12     4     5    1
    13     5     1    1
    14     1    17    1
    15    17    18    1
    16    18    19    1
    17    19    20    1
    18    20    23    1
    19    23    24    1
    20    24    25   ar
    21    25    26   ar
    22    26    27   ar
    23    27    28    1
    24    27    29   ar
    25    29    30    1
    26    29    31   ar
    27    20    21    1
    28    21    22    1
    29     5     6    1
    30     6     7    1
    31    13     8   ar
    32     7     2    1
    33    22    17    1
    34    31    24   ar
@<TRIPOS>MOLECULE
*****
 31 34 0 0 0
SMALL
GASTEIGER

@<TRIPOS>ATOM
      1 C         138.0471  143.1374  163.1194 C.3     1  UNL1        0.0722
      2 N         139.8605  141.2198  166.7642 N.pl3   1  UNL1       -0.3075
      3 C         138.9798  140.4164  165.8537 C.3     1  UNL1        0.0908
      4 C         138.3753  141.0556  164.6388 C.3     1  UNL1        0.0229
      5 C         138.6516  142.4982  164.3343 C.3     1  UNL1        0.0194
      6 C         139.5323  143.3016  165.2448 C.3     1  UNL1        0.0229
      7 C         140.1367  142.6623  166.4598 C.3     1  UNL1        0.0908
      8 C         141.7881  139.8811  167.8789 C.ar    1  UNL1        0.0273
      9 C         142.3925  139.2419  169.0938 C.ar    1  UNL1        0.0024
     10 C         141.6737  139.3020  170.4090 C.ar    1  UNL1        0.0001
     11 C         140.3505  140.0014  170.5093 C.ar    1  UNL1        0.0013
     12 C         139.7462  140.6406  169.2944 C.ar    1  UNL1        0.0146
     13 C         140.4649  140.5805  167.9792 C.ar    1  UNL1        0.0489
     14 O         143.2514  141.0219  166.0603 O.co2   1  UNL1       -0.5446
     15 C         142.5069  139.8210  166.5637 C.2     1  UNL1        0.0741
     16 O         142.4811  138.5599  165.7519 O.co2   1  UNL1       -0.5446
     17 N         138.9256  143.8338  162.1228 N.3     1  UNL1       -0.2724
     18 C         139.4734  143.0779  160.9487 C.3     1  UNL1        0.0758
     19 C         140.3519  143.7743  159.9520 C.3     1  UNL1        0.0609
     20 C         140.6825  145.2266  160.1294 C.3     1  UNL1        0.1687
     21 C         140.1347  145.9825  161.3035 C.3     1  UNL1        0.0609
     22 C         139.2563  145.2861  162.3002 C.3     1  UNL1        0.0758
     23 O         141.5610  145.9229  159.1328 O.3     1  UNL1       -0.4790
     24 C         141.2870  145.7829  157.6647 C.ar    1  UNL1        0.1393
     25 C         142.2870  145.1038  156.7765 C.ar    1  UNL1        0.0378
     26 C         142.0131  144.9638  155.3084 C.ar    1  UNL1        0.0154
     27 C         140.7391  145.5029  154.7284 C.ar    1  UNL1        0.0684
     28 CL        140.4651  145.3629  153.2603 Cl      1  UNL1       -0.0814
     29 C         139.7391  146.1820  155.6166 C.ar    1  UNL1        0.0712
     30 CL        138.4651  146.7211  155.0366 Cl      1  UNL1       -0.0813
     31 C         140.0130  146.3220  157.0847 C.ar    1  UNL1        0.0491
@<TRIPOS>UNITY_ATOM_ATTR
14 1
charge -1
@<TRIPOS>BOND
     1    14    15   ar
     2    15    16   ar
     3    15     8    1
     4     8     9   ar
     5     9    10   ar
     6    10    11   ar
     7    11    12   ar
     8    12    13   ar
     9    13     2    1
    10     2     3    1
    11     3     4    1
    12     4     5    1
    13     5     1    1
    14     1    17    1
    15    17    18    1
    16    18    19    1
    17    19    20    1
    18    20    23    1
    19    23    24    1
    20    24    25   ar
    21    25    26   ar
    22    26    27   ar
    23    27    28    1
    24    27    29   ar
    25    29    30    1
    26    29    31   ar
    27    20    21    1
    28    21    22    1
    29     5     6    1
    30     6     7    1
    31    13     8   ar
    32     7     2    1
    33    22    17    1
    34    31    24   ar
@<TRIPOS>MOLECULE
*****
 31 34 0 0 0
SMALL
GASTEIGER

@<TRIPOS>ATOM
      1 C         144.4499  138.9454  163.2671 C.3     1  UNL1        0.0722
      2 N         142.8620  141.2744  166.7748 N.pl3   1  UNL1       -0.3075
      3 C         142.7752  139.7770  166.7676 C.3     1  UNL1        0.0908
      4 C         143.3045  139.0006  165.5984 C.3     1  UNL1        0.0229
      5 C         143.9206  139.7217  164.4363 C.3     1  UNL1        0.0194
      6 C         144.0073  141.2192  164.4434 C.3     1  UNL1        0.0229
      7 C         143.4780  141.9956  165.6127 C.3     1  UNL1        0.0908
      8 C         140.9287  142.5783  167.9204 C.ar    1  UNL1        0.0273
      9 C         140.3994  143.3546  169.0897 C.ar    1  UNL1        0.0024
     10 C         141.2741  143.6034  170.2826 C.ar    1  UNL1        0.0001
     11 C         142.6780  143.0758  170.3063 C.ar    1  UNL1        0.0013
     12 C         143.2073  142.2995  169.1370 C.ar    1  UNL1        0.0146
     13 C         142.3326  142.0508  167.9441 C.ar    1  UNL1        0.0489
     14 O         139.7945  143.4326  165.7447 O.co2   1  UNL1       -0.5446
     15 C         140.0540  142.3296  166.7275 C.2     1  UNL1        0.0741
     16 O         139.4388  140.9778  166.5174 O.co2   1  UNL1       -0.5446
     17 N         143.7003  138.9420  161.9678 N.3     1  UNL1       -0.2724
     18 C         142.4663  138.1030  161.8160 C.3     1  UNL1        0.0758
     19 C         141.7167  138.0996  160.5168 C.3     1  UNL1        0.0609
     20 C         142.2012  138.9353  159.3692 C.3     1  UNL1        0.1687
     21 C         143.4352  139.7743  159.5210 C.3     1  UNL1        0.0609
     22 C         144.1848  139.7777  160.8203 C.3     1  UNL1        0.0758
     23 O         141.4516  138.9319  158.0700 O.3     1  UNL1       -0.4790
     24 C         141.4767  137.7154  157.1928 C.ar    1  UNL1        0.1393
     25 C         140.3248  137.4280  156.2759 C.ar    1  UNL1        0.0378
     26 C         140.3499  136.2115  155.3987 C.ar    1  UNL1        0.0154
     27 C         141.5268  135.2824  155.4384 C.ar    1  UNL1        0.0684
     28 CL        141.5518  134.0658  154.5612 Cl      1  UNL1       -0.0814
     29 C         142.6786  135.5697  156.3552 C.ar    1  UNL1        0.0712
     30 CL        143.8555  134.6405  156.3949 Cl      1  UNL1       -0.0813
     31 C         142.6536  136.7863  157.2325 C.ar    1  UNL1        0.0491
@<TRIPOS>UNITY_ATOM_ATTR
14 1
charge -1
@<TRIPOS>BOND
     1    14    15   ar
     2    15    16   ar
     3    15     8    1
     4     8     9   ar
     5     9    10   ar
     6    10    11   ar
     7    11    12   ar
     8    12    13   ar
     9    13     2    1
    10     2     3    1
    11     3     4    1
    12     4     5    1
    13     5     1    1
    14     1    17    1
    15    17    18    1
    16    18    19    1
    17    19    20    1
    18    20    23    1
    19    23    24    1
    20    24    25   ar
    21    25    26   ar
    22    26    27   ar
    23    27    28    1
    24    27    29   ar
    25    29    30    1
    26    29    31   ar
    27    20    21    1
    28    21    22    1
    29     5     6    1
    30     6     7    1
    31    13     8   ar
    32     7     2    1
    33    22    17    1
    34    31    24   ar
@<TRIPOS>MOLECULE
*****
 31 34 0 0 0
SMALL
GASTEIGER

@<TRIPOS>ATOM
      1 C         142.9490  144.6989  162.7655 C.3     1  UNL1        0.0722
      2 N         141.1013  142.7005  166.3491 N.pl3   1  UNL1       -0.3075
      3 C         142.5583  142.5061  166.0501 C.3     1  UNL1        0.0908
      4 C         143.1742  143.1722  164.8556 C.3     1  UNL1        0.0229
      5 C         142.3331  144.0328  163.9600 C.3     1  UNL1        0.0194
      6 C         140.8761  144.2272  164.2590 C.3     1  UNL1        0.0229
      7 C         140.2602  143.5611  165.4536 C.3     1  UNL1        0.0908
      8 C         139.8783  140.6691  167.4111 C.ar    1  UNL1        0.0273
      9 C         139.2625  140.0030  168.6056 C.ar    1  UNL1        0.0024
     10 C         139.2538  140.7021  169.9328 C.ar    1  UNL1        0.0001
     11 C         139.8609  142.0672  170.0653 C.ar    1  UNL1        0.0013
     12 C         140.4767  142.7334  168.8708 C.ar    1  UNL1        0.0146
     13 C         140.4854  142.0343  167.5437 C.ar    1  UNL1        0.0489
     14 O         141.0405  139.0877  165.7086 O.co2   1  UNL1       -0.5446
     15 C         139.8870  139.9701  166.0840 C.2     1  UNL1        0.0741
     16 O         138.7422  140.1533  165.1323 O.co2   1  UNL1       -0.5446
     17 N         143.1132  143.9374  161.4837 N.3     1  UNL1       -0.2724
     18 C         142.1217  144.1165  160.3726 C.3     1  UNL1        0.0758
     19 C         142.2859  143.3550  159.0907 C.3     1  UNL1        0.0609
     20 C         143.4417  142.4143  158.9200 C.3     1  UNL1        0.1687
     21 C         144.4333  142.2352  160.0312 C.3     1  UNL1        0.0609
     22 C         144.2690  142.9967  161.3130 C.3     1  UNL1        0.0758
     23 O         143.6059  141.6528  157.6382 O.3     1  UNL1       -0.4790
     24 C         144.5847  142.1260  156.6048 C.ar    1  UNL1        0.1393
     25 C         144.1022  142.8983  155.4128 C.ar    1  UNL1        0.0378
     26 C         145.0810  143.3715  154.3794 C.ar    1  UNL1        0.0154
     27 C         146.5423  143.0725  154.5379 C.ar    1  UNL1        0.0684
     28 CL        147.5211  143.5458  153.5044 Cl      1  UNL1       -0.0814
     29 C         147.0249  142.3003  155.7299 C.ar    1  UNL1        0.0712
     30 CL        148.4862  142.0013  155.8884 Cl      1  UNL1       -0.0813
     31 C         146.0461  141.8270  156.7633 C.ar    1  UNL1        0.0491
@<TRIPOS>UNITY_ATOM_ATTR
14 1
charge -1
@<TRIPOS>BOND
     1    14    15   ar
     2    15    16   ar
     3    15     8    1
     4     8     9   ar
     5     9    10   ar
     6    10    11   ar
     7    11    12   ar
     8    12    13   ar
     9    13     2    1
    10     2     3    1
    11     3     4    1
    12     4     5    1
    13     5     1    1
    14     1    17    1
    15    17    18    1
    16    18    19    1
    17    19    20    1
    18    20    23    1
    19    23    24    1
    20    24    25   ar
    21    25    26   ar
    22    26    27   ar
    23    27    28    1
    24    27    29   ar
    25    29    30    1
    26    29    31   ar
    27    20    21    1
    28    21    22    1
    29     5     6    1
    30     6     7    1
    31    13     8   ar
    32     7     2    1
    33    22    17    1
    34    31    24   ar
@<TRIPOS>MOLECULE
*****
 31 34 0 0 0
SMALL
GASTEIGER

@<TRIPOS>ATOM
      1 C         140.6963  137.0790  163.5321 C.3     1  UNL1        0.0722
      2 N         140.4544  139.9648  166.9765 N.pl3   1  UNL1       -0.3075
      3 C         141.7842  139.4208  166.5458 C.3     1  UNL1        0.0908
      4 C         141.8649  138.4588  165.3977 C.3     1  UNL1        0.0229
      5 C         140.6156  138.0409  164.6802 C.3     1  UNL1        0.0194
      6 C         139.2857  138.5849  165.1109 C.3     1  UNL1        0.0229
      7 C         139.2051  139.5469  166.2590 C.3     1  UNL1        0.0908
      8 C         140.4721  142.4025  167.8749 C.ar    1  UNL1        0.0273
      9 C         140.3915  143.3644  169.0231 C.ar    1  UNL1        0.0024
     10 C         140.2126  142.8505  170.4209 C.ar    1  UNL1        0.0001
     11 C         140.1142  141.3747  170.6706 C.ar    1  UNL1        0.0013
     12 C         140.1948  140.4129  169.5224 C.ar    1  UNL1        0.0146
     13 C         140.3738  140.9267  168.1246 C.ar    1  UNL1        0.0489
     14 O         141.9903  142.8205  165.8085 O.co2   1  UNL1       -0.5446
     15 C         140.6511  142.9164  166.4771 C.2     1  UNL1        0.0741
     16 O         139.4908  143.5262  165.7479 O.co2   1  UNL1       -0.5446
     17 N         140.7725  137.5946  162.1256 N.3     1  UNL1       -0.2724
     18 C         142.1052  137.7512  161.4553 C.3     1  UNL1        0.0758
     19 C         142.1814  138.2668  160.0488 C.3     1  UNL1        0.0609
     20 C         140.9249  138.6258  159.3125 C.3     1  UNL1        0.1687
     21 C         139.5921  138.4692  159.9827 C.3     1  UNL1        0.0609
     22 C         139.5159  137.9536  161.3893 C.3     1  UNL1        0.0758
     23 O         141.0011  139.1414  157.9060 O.3     1  UNL1       -0.4790
     24 C         141.2786  138.1963  156.7747 C.ar    1  UNL1        0.1393
     25 C         140.1880  137.8441  155.8069 C.ar    1  UNL1        0.0378
     26 C         140.4656  136.8991  154.6756 C.ar    1  UNL1        0.0154
     27 C         141.8337  136.3062  154.5121 C.ar    1  UNL1        0.0684
     28 CL        142.1112  135.3610  153.3808 Cl      1  UNL1       -0.0814
     29 C         142.9242  136.6583  155.4799 C.ar    1  UNL1        0.0712
     30 CL        144.2924  136.0654  155.3164 Cl      1  UNL1       -0.0813
     31 C         142.6467  137.6034  156.6112 C.ar    1  UNL1        0.0491
@<TRIPOS>UNITY_ATOM_ATTR
14 1
charge -1
@<TRIPOS>BOND
     1    14    15   ar
     2    15    16   ar
     3    15     8    1
     4     8     9   ar
     5     9    10   ar
     6    10    11   ar
     7    11    12   ar
     8    12    13   ar
     9    13     2    1
    10     2     3    1
    11     3     4    1
    12     4     5    1
    13     5     1    1
    14     1    17    1
    15    17    18    1
    16    18    19    1
    17    19    20    1
    18    20    23    1
    19    23    24    1
    20    24    25   ar
    21    25    26   ar
    22    26    27   ar
    23    27    28    1
    24    27    29   ar
    25    29    30    1
    26    29    31   ar
    27    20    21    1
    28    21    22    1
    29     5     6    1
    30     6     7    1
    31    13     8   ar
    32     7     2    1
    33    22    17    1
    34    31    24   ar
@<TRIPOS>MOLECULE
*****
 31 34 0 0 0
SMALL
GASTEIGER

@<TRIPOS>ATOM
      1 C         138.4871  138.9131  161.5248 C.3     1  UNL1        0.0722
      2 N         140.2568  142.2361  159.0599 N.pl3   1  UNL1       -0.3075
      3 C         138.7715  142.1546  159.2529 C.3     1  UNL1        0.0908
      4 C         138.1816  141.0470  160.0745 C.3     1  UNL1        0.0229
      5 C         139.0770  140.0207  160.7032 C.3     1  UNL1        0.0194
      6 C         140.5623  140.1023  160.5102 C.3     1  UNL1        0.0229
      7 C         141.1522  141.2100  159.6886 C.3     1  UNL1        0.0908
      8 C         141.2138  144.6454  158.8873 C.ar    1  UNL1        0.0273
      9 C         141.8037  145.7530  158.0657 C.ar    1  UNL1        0.0024
     10 C         142.0264  145.5592  156.5950 C.ar    1  UNL1        0.0001
     11 C         141.6592  144.2577  155.9460 C.ar    1  UNL1        0.0013
     12 C         141.0694  143.1501  156.7676 C.ar    1  UNL1        0.0146
     13 C         140.8467  143.3439  158.2383 C.ar    1  UNL1        0.0489
     14 O         139.6791  145.3704  160.8542 O.co2   1  UNL1       -0.5446
     15 C         140.9911  144.8392  160.3580 C.2     1  UNL1        0.0741
     16 O         142.0804  144.5018  161.3324 O.co2   1  UNL1       -0.5446
     17 N         138.5365  138.9819  163.0224 N.3     1  UNL1       -0.2724
     18 C         138.9928  137.7919  163.8132 C.3     1  UNL1        0.0758
     19 C         139.0422  137.8607  165.3108 C.3     1  UNL1        0.0609
     20 C         138.6353  139.1197  166.0176 C.3     1  UNL1        0.1687
     21 C         138.1790  140.3097  165.2267 C.3     1  UNL1        0.0609
     22 C         138.1296  140.2409  163.7291 C.3     1  UNL1        0.0758
     23 O         138.6847  139.1885  167.5152 O.3     1  UNL1       -0.4790
     24 C         139.5939  140.1715  168.1912 C.ar    1  UNL1        0.1393
     25 C         139.2731  140.6634  169.5715 C.ar    1  UNL1        0.0378
     26 C         140.1823  141.6464  170.2475 C.ar    1  UNL1        0.0154
     27 C         141.4123  142.1375  169.5433 C.ar    1  UNL1        0.0684
     28 CL        142.3216  143.1206  170.2194 Cl      1  UNL1       -0.0814
     29 C         141.7331  141.6457  168.1631 C.ar    1  UNL1        0.0712
     30 CL        142.9631  142.1368  167.4588 Cl      1  UNL1       -0.0813
     31 C         140.8239  140.6626  167.4870 C.ar    1  UNL1        0.0491
@<TRIPOS>UNITY_ATOM_ATTR
14 1
charge -1
@<TRIPOS>BOND
     1    14    15   ar
     2    15    16   ar
     3    15     8    1
     4     8     9   ar
     5     9    10   ar
     6    10    11   ar
     7    11    12   ar
     8    12    13   ar
     9    13     2    1
    10     2     3    1
    11     3     4    1
    12     4     5    1
    13     5     1    1
    14     1    17    1
    15    17    18    1
    16    18    19    1
    17    19    20    1
    18    20    23    1
    19    23    24    1
    20    24    25   ar
    21    25    26   ar
    22    26    27   ar
    23    27    28    1
    24    27    29   ar
    25    29    30    1
    26    29    31   ar
    27    20    21    1
    28    21    22    1
    29     5     6    1
    30     6     7    1
    31    13     8   ar
    32     7     2    1
    33    22    17    1
    34    31    24   ar
@<TRIPOS>MOLECULE
*****
 31 34 0 0 0
SMALL
GASTEIGER

@<TRIPOS>ATOM
      1 C         139.2575  137.5294  163.2364 C.3     1  UNL1        0.0722
      2 N         141.3536  139.5497  166.6678 N.pl3   1  UNL1       -0.3075
      3 C         142.1394  138.7337  165.6847 C.3     1  UNL1        0.0908
      4 C         141.4408  138.0603  164.5409 C.3     1  UNL1        0.0229
      5 C         139.9562  138.2028  164.3802 C.3     1  UNL1        0.0194
      6 C         139.1703  139.0188  165.3634 C.3     1  UNL1        0.0229
      7 C         139.8691  139.6922  166.5072 C.3     1  UNL1        0.0908
      8 C         142.6317  141.5952  167.6335 C.ar    1  UNL1        0.0273
      9 C         143.3305  142.2686  168.7773 C.ar    1  UNL1        0.0024
     10 C         143.4498  141.5699  170.0993 C.ar    1  UNL1        0.0001
     11 C         142.8704  140.1979  170.2775 C.ar    1  UNL1        0.0013
     12 C         142.1717  139.5245  169.1337 C.ar    1  UNL1        0.0146
     13 C         142.0524  140.2232  167.8117 C.ar    1  UNL1        0.0489
     14 O         141.2210  142.9514  165.9246 O.co2   1  UNL1       -0.5446
     15 C         142.5124  142.2938  166.3115 C.2     1  UNL1        0.0741
     16 O         143.6846  142.3349  165.3764 O.co2   1  UNL1       -0.5446
     17 N         138.9968  138.2850  161.9672 N.3     1  UNL1       -0.2724
     18 C         140.0053  138.2572  160.8572 C.3     1  UNL1        0.0758
     19 C         139.7447  139.0128  159.5879 C.3     1  UNL1        0.0609
     20 C         138.4755  139.7963  159.4286 C.3     1  UNL1        0.1687
     21 C         137.4671  139.8241  160.5386 C.3     1  UNL1        0.0609
     22 C         137.7277  139.0685  161.8079 C.3     1  UNL1        0.0758
     23 O         138.2149  140.5520  158.1594 O.3     1  UNL1       -0.4790
     24 C         138.7923  141.9235  157.9709 C.ar    1  UNL1        0.1393
     25 C         138.8602  142.5267  156.5992 C.ar    1  UNL1        0.0378
     26 C         139.4377  143.8982  156.4108 C.ar    1  UNL1        0.0154
     27 C         139.9472  144.6665  157.5941 C.ar    1  UNL1        0.0684
     28 CL        140.5247  146.0381  157.4056 Cl      1  UNL1       -0.0814
     29 C         139.8793  144.0633  158.9657 C.ar    1  UNL1        0.0712
     30 CL        140.3889  144.8316  160.1490 Cl      1  UNL1       -0.0813
     31 C         139.3019  142.6917  159.1542 C.ar    1  UNL1        0.0491
@<TRIPOS>UNITY_ATOM_ATTR
14 1
charge -1
@<TRIPOS>BOND
     1    14    15   ar
     2    15    16   ar
     3    15     8    1
     4     8     9   ar
     5     9    10   ar
     6    10    11   ar
     7    11    12   ar
     8    12    13   ar
     9    13     2    1
    10     2     3    1
    11     3     4    1
    12     4     5    1
    13     5     1    1
    14     1    17    1
    15    17    18    1
    16    18    19    1
    17    19    20    1
    18    20    23    1
    19    23    24    1
    20    24    25   ar
    21    25    26   ar
    22    26    27   ar
    23    27    28    1
    24    27    29   ar
    25    29    30    1
    26    29    31   ar
    27    20    21    1
    28    21    22    1
    29     5     6    1
    30     6     7    1
    31    13     8   ar
    32     7     2    1
    33    22    17    1
    34    31    24   ar
@<TRIPOS>MOLECULE
*****
 31 34 0 0 0
SMALL
GASTEIGER

@<TRIPOS>ATOM
      1 C         140.8127  137.1298  163.2376 C.3     1  UNL1        0.0722
      2 N         140.3639  139.9353  166.7272 N.pl3   1  UNL1       -0.3075
      3 C         141.7068  139.3516  166.4020 C.3     1  UNL1        0.0908
      4 C         141.8565  138.4164  165.2388 C.3     1  UNL1        0.0229
      5 C         140.6631  138.0649  164.4008 C.3     1  UNL1        0.0194
      6 C         139.3201  138.6486  164.7259 C.3     1  UNL1        0.0229
      7 C         139.1705  139.5838  165.8892 C.3     1  UNL1        0.0908
      8 C         140.5852  142.3163  167.7429 C.ar    1  UNL1        0.0273
      9 C         140.4356  143.2514  168.9061 C.ar    1  UNL1        0.0024
     10 C         139.9151  142.7407  170.2169 C.ar    1  UNL1        0.0001
     11 C         139.5442  141.2948  170.3645 C.ar    1  UNL1        0.0013
     12 C         139.6938  140.3597  169.2013 C.ar    1  UNL1        0.0146
     13 C         140.2143  140.8705  167.8905 C.ar    1  UNL1        0.0489
     14 O         142.5732  142.7571  166.1293 O.co2   1  UNL1       -0.5446
     15 C         141.1057  142.8271  166.4321 C.2     1  UNL1        0.0741
     16 O         140.1588  143.4078  165.4241 O.co2   1  UNL1       -0.5446
     17 N         140.8538  137.6721  161.8397 N.3     1  UNL1       -0.2724
     18 C         142.1676  137.8214  161.1315 C.3     1  UNL1        0.0758
     19 C         142.2088  138.3638  159.7336 C.3     1  UNL1        0.0609
     20 C         140.9362  138.7569  159.0438 C.3     1  UNL1        0.1687
     21 C         139.6223  138.6076  159.7520 C.3     1  UNL1        0.0609
     22 C         139.5812  138.0652  161.1499 C.3     1  UNL1        0.0758
     23 O         140.9773  139.2992  157.6459 O.3     1  UNL1       -0.4790
     24 C         139.9665  138.8449  156.6351 C.ar    1  UNL1        0.1393
     25 C         139.9249  137.4069  156.2100 C.ar    1  UNL1        0.0378
     26 C         138.9141  136.9526  155.1992 C.ar    1  UNL1        0.0154
     27 C         137.9449  137.9361  154.6134 C.ar    1  UNL1        0.0684
     28 CL        136.9340  137.4817  153.6026 Cl      1  UNL1       -0.0814
     29 C         137.9864  139.3740  155.0385 C.ar    1  UNL1        0.0712
     30 CL        137.0171  140.3576  154.4527 Cl      1  UNL1       -0.0813
     31 C         138.9972  139.8284  156.0493 C.ar    1  UNL1        0.0491
@<TRIPOS>UNITY_ATOM_ATTR
14 1
charge -1
@<TRIPOS>BOND
     1    14    15   ar
     2    15    16   ar
     3    15     8    1
     4     8     9   ar
     5     9    10   ar
     6    10    11   ar
     7    11    12   ar
     8    12    13   ar
     9    13     2    1
    10     2     3    1
    11     3     4    1
    12     4     5    1
    13     5     1    1
    14     1    17    1
    15    17    18    1
    16    18    19    1
    17    19    20    1
    18    20    23    1
    19    23    24    1
    20    24    25   ar
    21    25    26   ar
    22    26    27   ar
    23    27    28    1
    24    27    29   ar
    25    29    30    1
    26    29    31   ar
    27    20    21    1
    28    21    22    1
    29     5     6    1
    30     6     7    1
    31    13     8   ar
    32     7     2    1
    33    22    17    1
    34    31    24   ar
@<TRIPOS>MOLECULE
*****
 31 34 0 0 0
SMALL
GASTEIGER

@<TRIPOS>ATOM
      1 C         140.9126  137.0801  163.2467 C.3     1  UNL1        0.0722
      2 N         140.4567  139.8932  166.7292 N.pl3   1  UNL1       -0.3075
      3 C         139.2550  139.4942  165.9251 C.3     1  UNL1        0.0908
      4 C         139.4069  138.5565  164.7643 C.3     1  UNL1        0.0229
      5 C         140.7606  138.0178  164.4075 C.3     1  UNL1        0.0194
      6 C         141.9624  138.4168  165.2116 C.3     1  UNL1        0.0229
      7 C         141.8104  139.3545  166.3725 C.3     1  UNL1        0.0908
      8 C         140.5113  142.3040  167.6964 C.ar    1  UNL1        0.0273
      9 C         140.3593  143.2416  168.8573 C.ar    1  UNL1        0.0024
     10 C         140.0008  142.7063  170.2119 C.ar    1  UNL1        0.0001
     11 C         139.7943  141.2333  170.4056 C.ar    1  UNL1        0.0013
     12 C         139.9463  140.2956  169.2447 C.ar    1  UNL1        0.0146
     13 C         140.3048  140.8310  167.8901 C.ar    1  UNL1        0.0489
     14 O         139.8091  143.4412  165.4685 O.co2   1  UNL1       -0.5446
     15 C         140.8697  142.8393  166.3418 C.2     1  UNL1        0.0741
     16 O         142.2888  142.7727  165.8605 O.co2   1  UNL1       -0.5446
     17 N         141.0563  137.6247  161.8564 N.3     1  UNL1       -0.2724
     18 C         142.4035  137.6527  161.1975 C.3     1  UNL1        0.0758
     19 C         142.5473  138.1973  159.8073 C.3     1  UNL1        0.0609
     20 C         141.3439  138.7139  159.0760 C.3     1  UNL1        0.1687
     21 C         139.9967  138.6859  159.7349 C.3     1  UNL1        0.0609
     22 C         139.8529  138.1413  161.1251 C.3     1  UNL1        0.0758
     23 O         141.4877  139.2585  157.6858 O.3     1  UNL1       -0.4790
     24 C         142.8121  139.7872  157.2206 C.ar    1  UNL1        0.1393
     25 C         143.5135  139.1400  156.0634 C.ar    1  UNL1        0.0378
     26 C         144.8379  139.6687  155.5983 C.ar    1  UNL1        0.0154
     27 C         145.4609  140.8447  156.2903 C.ar    1  UNL1        0.0684
     28 CL        146.7854  141.3735  155.8252 Cl      1  UNL1       -0.0814
     29 C         144.7595  141.4919  157.4475 C.ar    1  UNL1        0.0712
     30 CL        145.3825  142.6679  158.1396 Cl      1  UNL1       -0.0813
     31 C         143.4351  140.9632  157.9127 C.ar    1  UNL1        0.0491
@<TRIPOS>UNITY_ATOM_ATTR
14 1
charge -1
@<TRIPOS>BOND
     1    14    15   ar
     2    15    16   ar
     3    15     8    1
     4     8     9   ar
     5     9    10   ar
     6    10    11   ar
     7    11    12   ar
     8    12    13   ar
     9    13     2    1
    10     2     3    1
    11     3     4    1
    12     4     5    1
    13     5     1    1
    14     1    17    1
    15    17    18    1
    16    18    19    1
    17    19    20    1
    18    20    23    1
    19    23    24    1
    20    24    25   ar
    21    25    26   ar
    22    26    27   ar
    23    27    28    1
    24    27    29   ar
    25    29    30    1
    26    29    31   ar
    27    20    21    1
    28    21    22    1
    29     5     6    1
    30     6     7    1
    31    13     8   ar
    32     7     2    1
    33    22    17    1
    34    31    24   ar
