@<TRIPOS>MOLECULE
*****
 44 48 0 0 0
SMALL
GASTEIGER

@<TRIPOS>ATOM
      1 C         141.5925  141.3490  164.2969 C.3     1  UNL1        0.0808
      2 C         142.4200  141.7291  163.1049 C.ar    1  UNL1        0.0375
      3 C         142.3199  140.9327  161.8377 C.ar    1  UNL1        0.0023
      4 C         143.1474  141.3127  160.6457 C.ar    1  UNL1        0.0181
      5 C         143.0473  140.5163  159.3785 C.ar    1  UNL1        0.0082
      6 C         143.8748  140.8964  158.1865 C.ar    1  UNL1        0.0347
      7 BR        143.7747  140.1000  156.9193 Br      1  UNL1       -0.0490
      8 C         144.8024  142.0728  158.2617 C.ar    1  UNL1        0.0082
      9 C         144.9025  142.8691  159.5289 C.ar    1  UNL1        0.0197
     10 C         144.0750  142.4891  160.7209 C.ar    1  UNL1        0.0844
     11 N         144.1751  143.2855  161.9881 N.ar    1  UNL1       -0.2119
     12 C         143.3476  142.9054  163.1801 C.ar    1  UNL1        0.2211
     13 O         143.4477  143.7018  164.4473 O.3     1  UNL1       -0.4563
     14 C         144.6265  143.5193  165.3567 C.3     1  UNL1        0.2542
     15 C         142.1785  140.4812  165.3708 C.ar    1  UNL1        0.0245
     16 C         142.6838  139.1096  165.0342 C.ar    1  UNL1        0.0200
     17 C         143.2698  138.2417  166.1082 C.ar    1  UNL1        0.1019
     18 N         143.3505  138.7455  167.5188 N.ar    1  UNL1       -0.2076
     19 C         142.8451  140.1171  167.8554 C.ar    1  UNL1        0.2598
     20 C         142.2591  140.9849  166.7814 C.ar    1  UNL1        0.1879
     21 O         142.9258  140.6208  169.2659 O.3     1  UNL1       -0.4541
     22 C         142.0681  140.0061  170.3320 C.3     1  UNL1        0.2543
     23 O         141.7537  142.3565  167.1180 O.3     1  UNL1       -0.4670
     24 C         140.5503  142.5171  167.9989 C.3     1  UNL1        0.2527
     25 C         140.1789  141.8369  164.4149 C.3     1  UNL1        0.1168
     26 O         140.6796  143.2323  164.6434 O.3     1  UNL1       -0.3820
     27 H         139.9257  143.8305  164.7646 H       1  UNL1        0.2107
     28 C         139.2306  138.4458  162.5843 C.ar    1  UNL1        0.2272
     29 C         139.7313  139.8412  162.8128 C.ar    1  UNL1        0.0559
     30 C         139.6783  140.4415  164.1864 C.ar    1  UNL1        0.0117
     31 C         139.1246  139.6464  165.3314 C.ar    1  UNL1        0.0559
     32 C         138.6239  138.2510  165.1029 C.ar    1  UNL1        0.2272
     33 N         138.6770  137.6507  163.7294 N.ar    1  UNL1       -0.1767
     34 C         139.6371  138.7019  160.0310 C.3     1  UNL1        0.2542
     35 O         139.2837  137.8454  161.2106 O.3     1  UNL1       -0.4561
     36 O         138.0703  137.4559  166.2481 O.3     1  UNL1       -0.4561
     37 C         137.3134  138.1462  167.3439 C.3     1  UNL1        0.2542
     38 C         138.7654  142.3247  164.5329 C.3     1  UNL1        0.0563
     39 C         138.2602  143.3911  163.6067 C.3     1  UNL1        0.1104
     40 N         138.6117  143.3466  162.1491 N.ar    1  UNL1       -0.3077
     41 C         138.0893  142.3614  161.1458 C.ar    1  UNL1        0.0980
     42 C         138.7020  142.6854  159.8156 C.ar    1  UNL1        0.1193
     43 N         139.6031  143.8708  159.9966 N.ar    1  UNL1       -0.2223
     44 C         139.5473  144.2794  161.4388 C.ar    1  UNL1        0.1786
@<TRIPOS>BOND
     1    34    35    1
     2    35    28    1
     3    28    29   ar
     4    29    30   ar
     5    30    25    1
     6    25    26    1
     7    25    38    1
     8    38    39    1
     9    39    40    1
    10    40    41   ar
    11    41    42   ar
    12    42    43   ar
    13    43    44   ar
    14    25     1    1
    15     1     2    1
    16     2     3   ar
    17     3     4   ar
    18     4     5   ar
    19     5     6   ar
    20     6     7    1
    21     6     8   ar
    22     8     9   ar
    23     9    10   ar
    24    10    11   ar
    25    11    12   ar
    26    12    13    1
    27    13    14    1
    28     1    15    1
    29    15    16   ar
    30    16    17   ar
    31    17    18   ar
    32    18    19   ar
    33    19    21    1
    34    21    22    1
    35    19    20   ar
    36    20    23    1
    37    23    24    1
    38    30    31   ar
    39    31    32   ar
    40    32    36    1
    41    36    37    1
    42    32    33   ar
    43    33    28   ar
    44    44    40   ar
    45    12     2   ar
    46    20    15   ar
    47    10     4   ar
    48    26    27    1
@<TRIPOS>MOLECULE
*****
 44 48 0 0 0
SMALL
GASTEIGER

@<TRIPOS>ATOM
      1 C         141.8552  142.2698  162.5937 C.3     1  UNL1        0.0808
      2 C         142.2442  142.2789  164.0424 C.ar    1  UNL1        0.0375
      3 C         141.4035  141.5511  165.0492 C.ar    1  UNL1        0.0023
      4 C         141.7924  141.5601  166.4979 C.ar    1  UNL1        0.0181
      5 C         140.9517  140.8323  167.5046 C.ar    1  UNL1        0.0082
      6 C         141.3406  140.8413  168.9534 C.ar    1  UNL1        0.0347
      7 BR        140.5000  140.1135  169.9601 Br      1  UNL1       -0.0490
      8 C         142.5701  141.5782  169.3953 C.ar    1  UNL1        0.0082
      9 C         143.4108  142.3060  168.3885 C.ar    1  UNL1        0.0197
     10 C         143.0219  142.2970  166.9398 C.ar    1  UNL1        0.0844
     11 N         143.8626  143.0248  165.9331 N.ar    1  UNL1       -0.2119
     12 C         143.4737  143.0157  164.4843 C.ar    1  UNL1        0.2211
     13 O         144.3143  143.7436  163.4776 O.3     1  UNL1       -0.4563
     14 C         144.0947  145.2074  163.2350 C.3     1  UNL1        0.2542
     15 C         141.1894  143.4699  161.9884 C.ar    1  UNL1        0.0245
     16 C         139.9419  144.0274  162.6072 C.ar    1  UNL1        0.0200
     17 C         139.2761  145.2274  162.0019 C.ar    1  UNL1        0.1019
     18 N         139.8578  145.8701  160.7777 N.ar    1  UNL1       -0.2076
     19 C         141.1054  145.3127  160.1588 C.ar    1  UNL1        0.2598
     20 C         141.7712  144.1125  160.7642 C.ar    1  UNL1        0.1879
     21 O         141.6871  145.9553  158.9347 O.3     1  UNL1       -0.4541
     22 C         140.9550  145.8789  157.6277 C.3     1  UNL1        0.2543
     23 O         143.0187  143.5551  160.1454 O.3     1  UNL1       -0.4670
     24 C         142.9643  142.9255  158.7850 C.3     1  UNL1        0.2527
     25 C         142.1322  141.0607  161.7504 C.3     1  UNL1        0.1168
     26 O         143.6061  141.3037  161.8859 O.3     1  UNL1       -0.3820
     27 H         144.0927  140.6189  161.4010 H       1  UNL1        0.2107
     28 C         138.5372  140.6241  160.1271 C.ar    1  UNL1        0.2272
     29 C         140.0111  140.8672  160.2626 C.ar    1  UNL1        0.0559
     30 C         140.6582  140.8176  161.6149 C.ar    1  UNL1        0.0117
     31 C         139.8314  140.5249  162.8317 C.ar    1  UNL1        0.0559
     32 C         138.3574  140.2819  162.6961 C.ar    1  UNL1        0.2272
     33 N         137.7103  140.3315  161.3438 N.ar    1  UNL1       -0.1767
     34 C         138.7381  140.7537  157.5400 C.3     1  UNL1        0.2542
     35 O         137.8901  140.6737  158.7747 O.3     1  UNL1       -0.4561
     36 O         137.5305  139.9892  163.9130 O.3     1  UNL1       -0.4561
     37 C         138.2005  139.6355  165.2077 C.3     1  UNL1        0.2542
     38 C         142.4091  139.8515  160.9071 C.3     1  UNL1        0.0563
     39 C         142.9489  138.6032  161.5401 C.3     1  UNL1        0.1104
     40 N         142.4599  138.1762  162.8923 N.ar    1  UNL1       -0.3077
     41 C         141.2704  137.3038  163.1646 C.ar    1  UNL1        0.0980
     42 C         141.1498  137.1350  164.6502 C.ar    1  UNL1        0.1193
     43 N         142.2647  137.9030  165.2960 N.ar    1  UNL1       -0.2223
     44 C         143.0743  138.5465  164.2095 C.ar    1  UNL1        0.1786
@<TRIPOS>BOND
     1    34    35    1
     2    35    28    1
     3    28    29   ar
     4    29    30   ar
     5    30    25    1
     6    25    26    1
     7    25    38    1
     8    38    39    1
     9    39    40    1
    10    40    41   ar
    11    41    42   ar
    12    42    43   ar
    13    43    44   ar
    14    25     1    1
    15     1     2    1
    16     2     3   ar
    17     3     4   ar
    18     4     5   ar
    19     5     6   ar
    20     6     7    1
    21     6     8   ar
    22     8     9   ar
    23     9    10   ar
    24    10    11   ar
    25    11    12   ar
    26    12    13    1
    27    13    14    1
    28     1    15    1
    29    15    16   ar
    30    16    17   ar
    31    17    18   ar
    32    18    19   ar
    33    19    21    1
    34    21    22    1
    35    19    20   ar
    36    20    23    1
    37    23    24    1
    38    30    31   ar
    39    31    32   ar
    40    32    36    1
    41    36    37    1
    42    32    33   ar
    43    33    28   ar
    44    44    40   ar
    45    12     2   ar
    46    20    15   ar
    47    10     4   ar
    48    26    27    1
@<TRIPOS>MOLECULE
*****
 44 48 0 0 0
SMALL
GASTEIGER

@<TRIPOS>ATOM
      1 C         141.5989  141.3628  164.1976 C.3     1  UNL1        0.0808
      2 C         142.4188  141.7313  162.9967 C.ar    1  UNL1        0.0375
      3 C         142.3119  140.9217  161.7385 C.ar    1  UNL1        0.0023
      4 C         143.1317  141.2902  160.5376 C.ar    1  UNL1        0.0181
      5 C         143.0248  140.4806  159.2794 C.ar    1  UNL1        0.0082
      6 C         143.8447  140.8491  158.0785 C.ar    1  UNL1        0.0347
      7 BR        143.7378  140.0395  156.8203 Br      1  UNL1       -0.0490
      8 C         144.7714  142.0271  158.1359 C.ar    1  UNL1        0.0082
      9 C         144.8783  142.8367  159.3941 C.ar    1  UNL1        0.0197
     10 C         144.0585  142.4683  160.5950 C.ar    1  UNL1        0.0844
     11 N         144.1654  143.2779  161.8532 N.ar    1  UNL1       -0.2119
     12 C         143.3455  142.9093  163.0541 C.ar    1  UNL1        0.2211
     13 O         143.4524  143.7189  164.3123 O.3     1  UNL1       -0.4563
     14 C         144.6118  143.5117  165.2413 C.3     1  UNL1        0.2542
     15 C         142.1897  140.4999  165.2729 C.ar    1  UNL1        0.0245
     16 C         142.7066  139.1322  164.9377 C.ar    1  UNL1        0.0200
     17 C         143.2973  138.2693  166.0131 C.ar    1  UNL1        0.1019
     18 N         143.3712  138.7741  167.4237 N.ar    1  UNL1       -0.2076
     19 C         142.8543  140.1417  167.7589 C.ar    1  UNL1        0.2598
     20 C         142.2635  141.0046  166.6835 C.ar    1  UNL1        0.1879
     21 O         142.9281  140.6465  169.1695 O.3     1  UNL1       -0.4541
     22 C         142.5195  139.7575  170.3065 C.3     1  UNL1        0.2543
     23 O         141.7466  142.3723  167.0187 O.3     1  UNL1       -0.4670
     24 C         140.5571  142.5244  167.9199 C.3     1  UNL1        0.2527
     25 C         140.1883  141.8572  164.3231 C.3     1  UNL1        0.1168
     26 O         140.6963  143.2523  164.5365 O.3     1  UNL1       -0.3820
     27 H         139.9458  143.8545  164.6590 H       1  UNL1        0.2107
     28 C         138.6194  138.2852  165.0507 C.ar    1  UNL1        0.2272
     29 C         139.1273  139.6804  165.2642 C.ar    1  UNL1        0.0559
     30 C         139.6804  140.4620  164.1096 C.ar    1  UNL1        0.0117
     31 C         139.7254  139.8486  162.7416 C.ar    1  UNL1        0.0559
     32 C         139.2174  138.4534  162.5281 C.ar    1  UNL1        0.2272
     33 N         138.6644  137.6718  163.6827 N.ar    1  UNL1       -0.1767
     34 C         137.3574  138.2133  167.3207 C.3     1  UNL1        0.2542
     35 O         138.0663  137.5036  166.2054 O.3     1  UNL1       -0.4561
     36 O         139.2625  137.8400  161.1600 O.3     1  UNL1       -0.4561
     37 C         139.5430  138.6982  159.9621 C.3     1  UNL1        0.2542
     38 C         138.7777  142.3516  164.4485 C.3     1  UNL1        0.0563
     39 C         138.2638  143.3998  163.5066 C.3     1  UNL1        0.1104
     40 N         138.6311  143.3470  162.0532 N.ar    1  UNL1       -0.3077
     41 C         138.0876  142.3827  161.0409 C.ar    1  UNL1        0.0980
     42 C         138.7270  142.6890  159.7190 C.ar    1  UNL1        0.1193
     43 N         139.6656  143.8427  159.9143 N.ar    1  UNL1       -0.2223
     44 C         139.6063  144.2493  161.3569 C.ar    1  UNL1        0.1786
@<TRIPOS>BOND
     1    34    35    1
     2    35    28    1
     3    28    29   ar
     4    29    30   ar
     5    30    25    1
     6    25    26    1
     7    25    38    1
     8    38    39    1
     9    39    40    1
    10    40    41   ar
    11    41    42   ar
    12    42    43   ar
    13    43    44   ar
    14    25     1    1
    15     1     2    1
    16     2     3   ar
    17     3     4   ar
    18     4     5   ar
    19     5     6   ar
    20     6     7    1
    21     6     8   ar
    22     8     9   ar
    23     9    10   ar
    24    10    11   ar
    25    11    12   ar
    26    12    13    1
    27    13    14    1
    28     1    15    1
    29    15    16   ar
    30    16    17   ar
    31    17    18   ar
    32    18    19   ar
    33    19    21    1
    34    21    22    1
    35    19    20   ar
    36    20    23    1
    37    23    24    1
    38    30    31   ar
    39    31    32   ar
    40    32    36    1
    41    36    37    1
    42    32    33   ar
    43    33    28   ar
    44    44    40   ar
    45    12     2   ar
    46    20    15   ar
    47    10     4   ar
    48    26    27    1
@<TRIPOS>MOLECULE
*****
 44 48 0 0 0
SMALL
GASTEIGER

@<TRIPOS>ATOM
      1 C         141.9514  141.7087  162.4511 C.3     1  UNL1        0.0808
      2 C         142.2525  141.8892  163.9095 C.ar    1  UNL1        0.0375
      3 C         141.2080  141.5658  164.9365 C.ar    1  UNL1        0.0023
      4 C         141.5090  141.7462  166.3948 C.ar    1  UNL1        0.0181
      5 C         140.4646  141.4229  167.4218 C.ar    1  UNL1        0.0082
      6 C         140.7656  141.6033  168.8802 C.ar    1  UNL1        0.0347
      7 BR        139.7212  141.2799  169.9072 Br      1  UNL1       -0.0490
      8 C         142.1110  142.1071  169.3116 C.ar    1  UNL1        0.0082
      9 C         143.1554  142.4305  168.2846 C.ar    1  UNL1        0.0197
     10 C         142.8544  142.2500  166.8263 C.ar    1  UNL1        0.0844
     11 N         143.8988  142.5734  165.7993 N.ar    1  UNL1       -0.2119
     12 C         143.5978  142.3930  164.3409 C.ar    1  UNL1        0.2211
     13 O         144.6422  142.7163  163.3139 O.3     1  UNL1       -0.4563
     14 C         145.7647  141.7550  163.0573 C.3     1  UNL1        0.2542
     15 C         142.4480  140.4921  161.7277 C.ar    1  UNL1        0.0245
     16 C         142.2961  139.1356  162.3497 C.ar    1  UNL1        0.0200
     17 C         142.7927  137.9191  161.6263 C.ar    1  UNL1        0.1019
     18 N         143.4411  138.0589  160.2809 N.ar    1  UNL1       -0.2076
     19 C         143.5930  139.4154  159.6589 C.ar    1  UNL1        0.2598
     20 C         143.0964  140.6321  160.3824 C.ar    1  UNL1        0.1879
     21 O         144.2414  139.5554  158.3136 O.3     1  UNL1       -0.4541
     22 C         143.3955  139.6208  157.0766 C.3     1  UNL1        0.2543
     23 O         143.2482  141.9886  159.7604 O.3     1  UNL1       -0.4670
     24 C         144.6140  142.5819  159.5791 C.3     1  UNL1        0.2527
     25 C         141.1538  142.7449  161.7161 C.3     1  UNL1        0.1168
     26 O         142.2959  143.7098  161.8371 O.3     1  UNL1       -0.3820
     27 H         142.0558  144.5496  161.4151 H       1  UNL1        0.2107
     28 C         138.2175  140.2664  162.7084 C.ar    1  UNL1        0.2272
     29 C         139.3596  141.2313  162.8294 C.ar    1  UNL1        0.0559
     30 C         140.0118  141.7800  161.5951 C.ar    1  UNL1        0.0117
     31 C         139.5219  141.3638  160.2399 C.ar    1  UNL1        0.0559
     32 C         138.3798  140.3990  160.1189 C.ar    1  UNL1        0.2272
     33 N         137.7276  139.8502  161.3532 N.ar    1  UNL1       -0.1767
     34 C         138.4056  139.1245  165.0345 C.3     1  UNL1        0.2542
     35 O         137.5653  139.7177  163.9428 O.3     1  UNL1       -0.4561
     36 O         137.8899  139.9828  158.7636 O.3     1  UNL1       -0.4561
     37 C         137.9621  140.9423  157.6128 C.3     1  UNL1        0.2542
     38 C         140.3563  143.7811  160.9812 C.3     1  UNL1        0.0563
     39 C         139.7927  144.9580  161.7212 C.3     1  UNL1        0.1104
     40 N         139.1692  144.7660  163.0719 N.ar    1  UNL1       -0.3077
     41 C         139.8593  144.9320  164.3933 C.ar    1  UNL1        0.0980
     42 C         138.8626  144.6429  165.4764 C.ar    1  UNL1        0.1193
     43 N         137.5564  144.2982  164.8243 N.ar    1  UNL1       -0.2223
     44 C         137.7459  144.3743  163.3383 C.ar    1  UNL1        0.1786
@<TRIPOS>BOND
     1    34    35    1
     2    35    28    1
     3    28    29   ar
     4    29    30   ar
     5    30    25    1
     6    25    26    1
     7    25    38    1
     8    38    39    1
     9    39    40    1
    10    40    41   ar
    11    41    42   ar
    12    42    43   ar
    13    43    44   ar
    14    25     1    1
    15     1     2    1
    16     2     3   ar
    17     3     4   ar
    18     4     5   ar
    19     5     6   ar
    20     6     7    1
    21     6     8   ar
    22     8     9   ar
    23     9    10   ar
    24    10    11   ar
    25    11    12   ar
    26    12    13    1
    27    13    14    1
    28     1    15    1
    29    15    16   ar
    30    16    17   ar
    31    17    18   ar
    32    18    19   ar
    33    19    21    1
    34    21    22    1
    35    19    20   ar
    36    20    23    1
    37    23    24    1
    38    30    31   ar
    39    31    32   ar
    40    32    36    1
    41    36    37    1
    42    32    33   ar
    43    33    28   ar
    44    44    40   ar
    45    12     2   ar
    46    20    15   ar
    47    10     4   ar
    48    26    27    1
@<TRIPOS>MOLECULE
*****
 44 48 0 0 0
SMALL
GASTEIGER

@<TRIPOS>ATOM
      1 C         141.9441  141.7132  162.4521 C.3     1  UNL1        0.0808
      2 C         142.2478  141.8959  163.9097 C.ar    1  UNL1        0.0375
      3 C         141.1982  141.5947  164.9381 C.ar    1  UNL1        0.0023
      4 C         141.5019  141.7774  166.3956 C.ar    1  UNL1        0.0181
      5 C         140.4522  141.4763  167.4239 C.ar    1  UNL1        0.0082
      6 C         140.7560  141.6589  168.8815 C.ar    1  UNL1        0.0347
      7 BR        139.7063  141.3578  169.9098 Br      1  UNL1       -0.0490
      8 C         142.1094  142.1427  169.3106 C.ar    1  UNL1        0.0082
      9 C         143.1591  142.4438  168.2823 C.ar    1  UNL1        0.0197
     10 C         142.8554  142.2612  166.8248 C.ar    1  UNL1        0.0844
     11 N         143.9050  142.5623  165.7964 N.ar    1  UNL1       -0.2119
     12 C         143.6013  142.3796  164.3389 C.ar    1  UNL1        0.2211
     13 O         144.6509  142.6807  163.3105 O.3     1  UNL1       -0.4563
     14 C         145.7791  141.7180  163.0862 C.3     1  UNL1        0.2542
     15 C         142.4416  140.4969  161.7290 C.ar    1  UNL1        0.0245
     16 C         142.2726  139.1383  162.3421 C.ar    1  UNL1        0.0200
     17 C         142.7701  137.9220  161.6190 C.ar    1  UNL1        0.1019
     18 N         143.4367  138.0641  160.2827 N.ar    1  UNL1       -0.2076
     19 C         143.6057  139.4227  159.6696 C.ar    1  UNL1        0.2598
     20 C         143.1081  140.6390  160.3928 C.ar    1  UNL1        0.1879
     21 O         144.2722  139.5648  158.3335 O.3     1  UNL1       -0.4541
     22 C         143.4418  139.7007  157.0918 C.3     1  UNL1        0.2543
     23 O         143.2771  141.9975  159.7798 O.3     1  UNL1       -0.4670
     24 C         144.6464  142.5960  159.6483 C.3     1  UNL1        0.2527
     25 C         141.1428  142.7469  161.7178 C.3     1  UNL1        0.1168
     26 O         142.2683  143.7269  161.8690 O.3     1  UNL1       -0.3820
     27 H         142.0224  144.5683  161.4539 H       1  UNL1        0.2107
     28 C         138.4514  140.3557  160.0478 C.ar    1  UNL1        0.2272
     29 C         139.5770  141.3356  160.1990 C.ar    1  UNL1        0.0559
     30 C         140.0172  141.7670  161.5665 C.ar    1  UNL1        0.0117
     31 C         139.3318  141.2185  162.7828 C.ar    1  UNL1        0.0559
     32 C         138.2063  140.2385  162.6316 C.ar    1  UNL1        0.2272
     33 N         137.7661  139.8072  161.2641 N.ar    1  UNL1       -0.1767
     34 C         138.8089  140.3246  157.4746 C.3     1  UNL1        0.2542
     35 O         138.0113  139.9243  158.6802 O.3     1  UNL1       -0.4561
     36 O         137.5209  139.6900  163.8479 O.3     1  UNL1       -0.4561
     37 C         138.3133  139.3984  165.0878 C.3     1  UNL1        0.2542
     38 C         140.3414  143.7807  160.9834 C.3     1  UNL1        0.0563
     39 C         139.7767  144.9569  161.7234 C.3     1  UNL1        0.1104
     40 N         139.1564  144.7648  163.0756 N.ar    1  UNL1       -0.3077
     41 C         139.8496  144.9312  164.3954 C.ar    1  UNL1        0.0980
     42 C         138.8556  144.6418  165.4808 C.ar    1  UNL1        0.1193
     43 N         137.5480  144.2965  164.8319 N.ar    1  UNL1       -0.2223
     44 C         137.7339  144.3725  163.3454 C.ar    1  UNL1        0.1786
@<TRIPOS>BOND
     1    34    35    1
     2    35    28    1
     3    28    29   ar
     4    29    30   ar
     5    30    25    1
     6    25    26    1
     7    25    38    1
     8    38    39    1
     9    39    40    1
    10    40    41   ar
    11    41    42   ar
    12    42    43   ar
    13    43    44   ar
    14    25     1    1
    15     1     2    1
    16     2     3   ar
    17     3     4   ar
    18     4     5   ar
    19     5     6   ar
    20     6     7    1
    21     6     8   ar
    22     8     9   ar
    23     9    10   ar
    24    10    11   ar
    25    11    12   ar
    26    12    13    1
    27    13    14    1
    28     1    15    1
    29    15    16   ar
    30    16    17   ar
    31    17    18   ar
    32    18    19   ar
    33    19    21    1
    34    21    22    1
    35    19    20   ar
    36    20    23    1
    37    23    24    1
    38    30    31   ar
    39    31    32   ar
    40    32    36    1
    41    36    37    1
    42    32    33   ar
    43    33    28   ar
    44    44    40   ar
    45    12     2   ar
    46    20    15   ar
    47    10     4   ar
    48    26    27    1
@<TRIPOS>MOLECULE
*****
 44 48 0 0 0
SMALL
GASTEIGER

@<TRIPOS>ATOM
      1 C         140.8573  140.6582  162.2318 C.3     1  UNL1        0.0808
      2 C         140.4731  140.4244  163.6628 C.ar    1  UNL1        0.0375
      3 C         140.7644  141.4702  164.6980 C.ar    1  UNL1        0.0023
      4 C         140.3803  141.2365  166.1290 C.ar    1  UNL1        0.0181
      5 C         140.6716  142.2823  167.1641 C.ar    1  UNL1        0.0082
      6 C         140.2875  142.0485  168.5952 C.ar    1  UNL1        0.0347
      7 BR        140.5788  143.0943  169.6303 Br      1  UNL1       -0.0490
      8 C         139.6121  140.7691  168.9910 C.ar    1  UNL1        0.0082
      9 C         139.3208  139.7233  167.9559 C.ar    1  UNL1        0.0197
     10 C         139.7049  139.9570  166.5249 C.ar    1  UNL1        0.0844
     11 N         139.4136  138.9112  165.4898 N.ar    1  UNL1       -0.2119
     12 C         139.7977  139.1450  164.0587 C.ar    1  UNL1        0.2211
     13 O         139.5064  138.0992  163.0236 O.3     1  UNL1       -0.4563
     14 C         138.1788  138.0841  162.3256 C.3     1  UNL1        0.2542
     15 C         141.7379  139.6736  161.5212 C.ar    1  UNL1        0.0245
     16 C         143.0456  139.2614  162.1297 C.ar    1  UNL1        0.0200
     17 C         143.9262  138.2769  161.4191 C.ar    1  UNL1        0.1019
     18 N         143.4993  137.7044  160.1000 N.ar    1  UNL1       -0.2076
     19 C         142.1917  138.1165  159.4915 C.ar    1  UNL1        0.2598
     20 C         141.3110  139.1012  160.2021 C.ar    1  UNL1        0.1879
     21 O         141.7647  137.5441  158.1724 O.3     1  UNL1       -0.4541
     22 C         142.7950  137.0526  157.1994 C.3     1  UNL1        0.2543
     23 O         140.0034  139.5133  159.5937 O.3     1  UNL1       -0.4670
     24 C         139.9844  140.2757  158.3019 C.3     1  UNL1        0.2527
     25 C         140.3607  141.8766  161.5114 C.3     1  UNL1        0.1168
     26 O         138.9534  141.3699  161.6244 O.3     1  UNL1       -0.3820
     27 H         138.3473  142.0035  161.2095 H       1  UNL1        0.2107
     28 C         143.8719  142.8792  159.9569 C.ar    1  UNL1        0.2272
     29 C         142.4646  142.3725  160.0700 C.ar    1  UNL1        0.0559
     30 C         141.7680  142.3833  161.3983 C.ar    1  UNL1        0.0117
     31 C         142.4787  142.9007  162.6137 C.ar    1  UNL1        0.0559
     32 C         143.8860  143.4075  162.5006 C.ar    1  UNL1        0.2272
     33 N         144.5826  143.3967  161.1723 N.ar    1  UNL1       -0.1767
     34 C         143.7861  142.6178  157.3734 C.3     1  UNL1        0.2542
     35 O         144.5685  142.8685  158.6285 O.3     1  UNL1       -0.4561
     36 O         144.5967  143.9249  163.7160 O.3     1  UNL1       -0.4561
     37 C         144.4385  143.2239  165.0327 C.3     1  UNL1        0.2542
     38 C         139.8642  143.0950  160.7910 C.3     1  UNL1        0.0563
     39 C         139.7303  144.3970  161.5237 C.3     1  UNL1        0.1104
     40 N         139.1149  144.4282  162.8912 N.ar    1  UNL1       -0.3077
     41 C         139.7845  144.8969  164.1490 C.ar    1  UNL1        0.0980
     42 C         138.8052  144.7546  165.2763 C.ar    1  UNL1        0.1193
     43 N         137.5303  144.1978  164.7152 N.ar    1  UNL1       -0.2223
     44 C         137.7218  143.9961  163.2412 C.ar    1  UNL1        0.1786
@<TRIPOS>BOND
     1    34    35    1
     2    35    28    1
     3    28    29   ar
     4    29    30   ar
     5    30    25    1
     6    25    26    1
     7    25    38    1
     8    38    39    1
     9    39    40    1
    10    40    41   ar
    11    41    42   ar
    12    42    43   ar
    13    43    44   ar
    14    25     1    1
    15     1     2    1
    16     2     3   ar
    17     3     4   ar
    18     4     5   ar
    19     5     6   ar
    20     6     7    1
    21     6     8   ar
    22     8     9   ar
    23     9    10   ar
    24    10    11   ar
    25    11    12   ar
    26    12    13    1
    27    13    14    1
    28     1    15    1
    29    15    16   ar
    30    16    17   ar
    31    17    18   ar
    32    18    19   ar
    33    19    21    1
    34    21    22    1
    35    19    20   ar
    36    20    23    1
    37    23    24    1
    38    30    31   ar
    39    31    32   ar
    40    32    36    1
    41    36    37    1
    42    32    33   ar
    43    33    28   ar
    44    44    40   ar
    45    12     2   ar
    46    20    15   ar
    47    10     4   ar
    48    26    27    1
@<TRIPOS>MOLECULE
*****
 44 48 0 0 0
SMALL
GASTEIGER

@<TRIPOS>ATOM
      1 C         141.6887  141.2465  163.5090 C.3     1  UNL1        0.0808
      2 C         141.7844  140.8825  164.9611 C.ar    1  UNL1        0.0375
      3 C         140.9918  141.6468  165.9797 C.ar    1  UNL1        0.0023
      4 C         141.0875  141.2829  167.4317 C.ar    1  UNL1        0.0181
      5 C         140.2949  142.0472  168.4503 C.ar    1  UNL1        0.0082
      6 C         140.3906  141.6832  169.9024 C.ar    1  UNL1        0.0347
      7 BR        139.5980  142.4475  170.9210 Br      1  UNL1       -0.0490
      8 C         141.2790  140.5549  170.3358 C.ar    1  UNL1        0.0082
      9 C         142.0716  139.7906  169.3171 C.ar    1  UNL1        0.0197
     10 C         141.9759  140.1545  167.8652 C.ar    1  UNL1        0.0844
     11 N         142.7685  139.3902  166.8465 N.ar    1  UNL1       -0.2119
     12 C         142.6727  139.7543  165.3945 C.ar    1  UNL1        0.2211
     13 O         143.4654  138.9899  164.3758 O.3     1  UNL1       -0.4563
     14 C         144.9229  139.2869  164.1828 C.3     1  UNL1        0.2542
     15 C         142.6877  142.1879  162.9044 C.ar    1  UNL1        0.0245
     16 C         143.0440  143.4606  163.6139 C.ar    1  UNL1        0.0200
     17 C         144.0430  144.4020  163.0092 C.ar    1  UNL1        0.1019
     18 N         144.6858  144.0708  161.6950 N.ar    1  UNL1       -0.2076
     19 C         144.3296  142.7981  160.9855 C.ar    1  UNL1        0.2598
     20 C         143.3305  141.8567  161.5902 C.ar    1  UNL1        0.1879
     21 O         144.9723  142.4668  159.6713 O.3     1  UNL1       -0.4541
     22 C         144.2382  142.7297  158.3900 C.3     1  UNL1        0.2543
     23 O         142.9742  140.5840  160.8807 O.3     1  UNL1       -0.4670
     24 C         143.9984  139.4988  160.7274 C.3     1  UNL1        0.2527
     25 C         140.5939  140.6691  162.6617 C.3     1  UNL1        0.1168
     26 O         141.2103  139.3079  162.7929 O.3     1  UNL1       -0.3820
     27 H         140.6757  138.6625  162.3045 H       1  UNL1        0.2107
     28 C         138.5592  143.9638  163.5305 C.ar    1  UNL1        0.2272
     29 C         139.1756  142.6026  163.6617 C.ar    1  UNL1        0.0559
     30 C         139.9774  142.0303  162.5306 C.ar    1  UNL1        0.0117
     31 C         140.1629  142.8191  161.2683 C.ar    1  UNL1        0.0559
     32 C         139.5464  144.1803  161.1372 C.ar    1  UNL1        0.2272
     33 N         138.7446  144.7527  162.2683 N.ar    1  UNL1       -0.1767
     34 C         138.4535  145.0928  165.8681 C.3     1  UNL1        0.2542
     35 O         137.7573  144.5362  164.6617 O.3     1  UNL1       -0.4561
     36 O         139.7319  144.9692  159.8749 O.3     1  UNL1       -0.4561
     37 C         139.9292  144.2587  158.5686 C.3     1  UNL1        0.2542
     38 C         139.4991  140.0917  161.8144 C.3     1  UNL1        0.0563
     39 C         138.3136  139.4399  162.4625 C.3     1  UNL1        0.1104
     40 N         138.3927  138.9911  163.8916 N.ar    1  UNL1       -0.3077
     41 C         138.0597  139.8208  165.0961 C.ar    1  UNL1        0.0980
     42 C         138.2798  138.9763  166.3160 C.ar    1  UNL1        0.1193
     43 N         138.7490  137.6246  165.8656 N.ar    1  UNL1       -0.2223
     44 C         138.8187  137.6338  164.3672 C.ar    1  UNL1        0.1786
@<TRIPOS>BOND
     1    34    35    1
     2    35    28    1
     3    28    29   ar
     4    29    30   ar
     5    30    25    1
     6    25    26    1
     7    25    38    1
     8    38    39    1
     9    39    40    1
    10    40    41   ar
    11    41    42   ar
    12    42    43   ar
    13    43    44   ar
    14    25     1    1
    15     1     2    1
    16     2     3   ar
    17     3     4   ar
    18     4     5   ar
    19     5     6   ar
    20     6     7    1
    21     6     8   ar
    22     8     9   ar
    23     9    10   ar
    24    10    11   ar
    25    11    12   ar
    26    12    13    1
    27    13    14    1
    28     1    15    1
    29    15    16   ar
    30    16    17   ar
    31    17    18   ar
    32    18    19   ar
    33    19    21    1
    34    21    22    1
    35    19    20   ar
    36    20    23    1
    37    23    24    1
    38    30    31   ar
    39    31    32   ar
    40    32    36    1
    41    36    37    1
    42    32    33   ar
    43    33    28   ar
    44    44    40   ar
    45    12     2   ar
    46    20    15   ar
    47    10     4   ar
    48    26    27    1
@<TRIPOS>MOLECULE
*****
 44 48 0 0 0
SMALL
GASTEIGER

@<TRIPOS>ATOM
      1 C         141.2877  140.9056  162.1932 C.3     1  UNL1        0.0808
      2 C         141.3655  140.6633  163.6715 C.ar    1  UNL1        0.0375
      3 C         141.0346  141.7678  164.6310 C.ar    1  UNL1        0.0023
      4 C         141.1124  141.5255  166.1092 C.ar    1  UNL1        0.0181
      5 C         140.7816  142.6300  167.0687 C.ar    1  UNL1        0.0082
      6 C         140.8594  142.3877  168.5470 C.ar    1  UNL1        0.0347
      7 BR        140.5286  143.4922  169.5065 Br      1  UNL1       -0.0490
      8 C         141.2681  141.0409  169.0657 C.ar    1  UNL1        0.0082
      9 C         141.5989  139.9364  168.1062 C.ar    1  UNL1        0.0197
     10 C         141.5211  140.1787  166.6280 C.ar    1  UNL1        0.0844
     11 N         141.8520  139.0742  165.6685 N.ar    1  UNL1       -0.2119
     12 C         141.7741  139.3165  164.1902 C.ar    1  UNL1        0.2211
     13 O         142.1050  138.2120  163.2307 O.3     1  UNL1       -0.4563
     14 C         141.0848  137.1570  162.9209 C.3     1  UNL1        0.2542
     15 C         140.0966  140.4280  161.4165 C.ar    1  UNL1        0.0245
     16 C         138.7129  140.6611  161.9467 C.ar    1  UNL1        0.0200
     17 C         137.5219  140.1834  161.1700 C.ar    1  UNL1        0.1019
     18 N         137.7145  139.4726  159.8632 N.ar    1  UNL1       -0.2076
     19 C         139.0982  139.2395  159.3331 C.ar    1  UNL1        0.2598
     20 C         140.2893  139.7172  160.1098 C.ar    1  UNL1        0.1879
     21 O         139.2909  138.5287  158.0264 O.3     1  UNL1       -0.4541
     22 C         139.4674  139.3172  156.7626 C.3     1  UNL1        0.2543
     23 O         141.6730  139.4841  159.5797 O.3     1  UNL1       -0.4670
     24 C         142.2516  138.1001  159.5764 C.3     1  UNL1        0.2527
     25 C         142.4009  141.6257  161.4916 C.3     1  UNL1        0.1168
     26 O         143.3330  140.4942  161.8094 O.3     1  UNL1       -0.3820
     27 H         144.2126  140.6893  161.4501 H       1  UNL1        0.2107
     28 C         139.9275  144.6927  161.9661 C.ar    1  UNL1        0.2272
     29 C         140.8596  143.5612  162.2838 C.ar    1  UNL1        0.0559
     30 C         141.4688  142.7572  161.1738 C.ar    1  UNL1        0.0117
     31 C         141.1461  143.0845  159.7461 C.ar    1  UNL1        0.0559
     32 C         140.2140  144.2160  159.4283 C.ar    1  UNL1        0.2272
     33 N         139.6047  145.0201  160.5383 N.ar    1  UNL1       -0.1767
     34 C         138.9364  144.8289  164.3639 C.3     1  UNL1        0.2542
     35 O         139.3182  145.4969  163.0762 O.3     1  UNL1       -0.4561
     36 O         139.8912  144.5434  158.0004 O.3     1  UNL1       -0.4561
     37 C         139.7271  143.4408  156.9968 C.3     1  UNL1        0.2542
     38 C         143.5142  142.3457  160.7900 C.3     1  UNL1        0.0563
     39 C         144.7000  142.8334  161.5686 C.3     1  UNL1        0.1104
     40 N         144.5143  143.3835  162.9517 N.ar    1  UNL1       -0.3077
     41 C         144.7852  142.6545  164.2343 C.ar    1  UNL1        0.0980
     42 C         144.4635  143.5797  165.3703 C.ar    1  UNL1        0.1193
     43 N         143.9937  144.8806  164.7897 N.ar    1  UNL1       -0.2223
     44 C         144.0252  144.7594  163.2950 C.ar    1  UNL1        0.1786
@<TRIPOS>BOND
     1    34    35    1
     2    35    28    1
     3    28    29   ar
     4    29    30   ar
     5    30    25    1
     6    25    26    1
     7    25    38    1
     8    38    39    1
     9    39    40    1
    10    40    41   ar
    11    41    42   ar
    12    42    43   ar
    13    43    44   ar
    14    25     1    1
    15     1     2    1
    16     2     3   ar
    17     3     4   ar
    18     4     5   ar
    19     5     6   ar
    20     6     7    1
    21     6     8   ar
    22     8     9   ar
    23     9    10   ar
    24    10    11   ar
    25    11    12   ar
    26    12    13    1
    27    13    14    1
    28     1    15    1
    29    15    16   ar
    30    16    17   ar
    31    17    18   ar
    32    18    19   ar
    33    19    21    1
    34    21    22    1
    35    19    20   ar
    36    20    23    1
    37    23    24    1
    38    30    31   ar
    39    31    32   ar
    40    32    36    1
    41    36    37    1
    42    32    33   ar
    43    33    28   ar
    44    44    40   ar
    45    12     2   ar
    46    20    15   ar
    47    10     4   ar
    48    26    27    1
@<TRIPOS>MOLECULE
*****
 44 48 0 0 0
SMALL
GASTEIGER

@<TRIPOS>ATOM
      1 C         141.7171  141.2560  163.5540 C.3     1  UNL1        0.0808
      2 C         141.8225  140.9072  165.0091 C.ar    1  UNL1        0.0375
      3 C         141.0169  141.6651  166.0223 C.ar    1  UNL1        0.0023
      4 C         141.1222  141.3163  167.4773 C.ar    1  UNL1        0.0181
      5 C         140.3166  142.0743  168.4905 C.ar    1  UNL1        0.0082
      6 C         140.4220  141.7255  169.9456 C.ar    1  UNL1        0.0347
      7 BR        139.6164  142.4834  170.9588 Br      1  UNL1       -0.0490
      8 C         141.3330  140.6188  170.3875 C.ar    1  UNL1        0.0082
      9 C         142.1387  139.8609  169.3744 C.ar    1  UNL1        0.0197
     10 C         142.0333  140.2097  167.9193 C.ar    1  UNL1        0.0844
     11 N         142.8390  139.4517  166.9062 N.ar    1  UNL1       -0.2119
     12 C         142.7336  139.8005  165.4510 C.ar    1  UNL1        0.2211
     13 O         143.5392  139.0426  164.4379 O.3     1  UNL1       -0.4563
     14 C         144.9856  139.3788  164.2262 C.3     1  UNL1        0.2542
     15 C         142.7085  142.1956  162.9343 C.ar    1  UNL1        0.0245
     16 C         143.0580  143.4801  163.6256 C.ar    1  UNL1        0.0200
     17 C         144.0494  144.4197  163.0058 C.ar    1  UNL1        0.1019
     18 N         144.6914  144.0749  161.6947 N.ar    1  UNL1       -0.2076
     19 C         144.3419  142.7904  161.0034 C.ar    1  UNL1        0.2598
     20 C         143.3504  141.8507  161.6232 C.ar    1  UNL1        0.1879
     21 O         144.9838  142.4456  159.6923 O.3     1  UNL1       -0.4541
     22 C         144.2594  142.7191  158.4076 C.3     1  UNL1        0.2543
     23 O         143.0009  140.5663  160.9318 O.3     1  UNL1       -0.4670
     24 C         144.0263  139.4785  160.8072 C.3     1  UNL1        0.2527
     25 C         140.6202  140.6650  162.7187 C.3     1  UNL1        0.1168
     26 O         141.2442  139.3082  162.8592 O.3     1  UNL1       -0.3820
     27 H         140.7100  138.6555  162.3802 H       1  UNL1        0.2107
     28 C         139.5540  144.1602  161.1705 C.ar    1  UNL1        0.2272
     29 C         140.1780  142.8034  161.3109 C.ar    1  UNL1        0.0559
     30 C         139.9963  142.0219  162.5783 C.ar    1  UNL1        0.0117
     31 C         139.1905  142.5971  163.7051 C.ar    1  UNL1        0.0559
     32 C         138.5666  143.9539  163.5647 C.ar    1  UNL1        0.2272
     33 N         138.7483  144.7355  162.2973 N.ar    1  UNL1       -0.1767
     34 C         141.1157  145.2191  159.3844 C.3     1  UNL1        0.2542
     35 O         139.7358  144.9418  159.9031 O.3     1  UNL1       -0.4561
     36 O         137.7608  144.5292  164.6916 O.3     1  UNL1       -0.4561
     37 C         138.4529  145.0895  165.8987 C.3     1  UNL1        0.2542
     38 C         139.5234  140.0741  161.8834 C.3     1  UNL1        0.0563
     39 C         138.6668  138.9751  162.4389 C.3     1  UNL1        0.1104
     40 N         138.5443  138.7972  163.9233 N.ar    1  UNL1       -0.3077
     41 C         138.0268  139.8171  164.8938 C.ar    1  UNL1        0.0980
     42 C         138.0806  139.2183  166.2681 C.ar    1  UNL1        0.1193
     43 N         138.6313  137.8283  166.1469 N.ar    1  UNL1       -0.2223
     44 C         138.9179  137.5681  164.6977 C.ar    1  UNL1        0.1786
@<TRIPOS>BOND
     1    34    35    1
     2    35    28    1
     3    28    29   ar
     4    29    30   ar
     5    30    25    1
     6    25    26    1
     7    25    38    1
     8    38    39    1
     9    39    40    1
    10    40    41   ar
    11    41    42   ar
    12    42    43   ar
    13    43    44   ar
    14    25     1    1
    15     1     2    1
    16     2     3   ar
    17     3     4   ar
    18     4     5   ar
    19     5     6   ar
    20     6     7    1
    21     6     8   ar
    22     8     9   ar
    23     9    10   ar
    24    10    11   ar
    25    11    12   ar
    26    12    13    1
    27    13    14    1
    28     1    15    1
    29    15    16   ar
    30    16    17   ar
    31    17    18   ar
    32    18    19   ar
    33    19    21    1
    34    21    22    1
    35    19    20   ar
    36    20    23    1
    37    23    24    1
    38    30    31   ar
    39    31    32   ar
    40    32    36    1
    41    36    37    1
    42    32    33   ar
    43    33    28   ar
    44    44    40   ar
    45    12     2   ar
    46    20    15   ar
    47    10     4   ar
    48    26    27    1
