@<TRIPOS>MOLECULE
*****
 36 39 0 0 0
SMALL
GASTEIGER

@<TRIPOS>ATOM
      1 N         138.5894  142.0773  161.0251 N.ar    1  UNL1       -0.2891
      2 C         138.4505  142.0021  159.5334 C.ar    1  UNL1        0.2927
      3 O         138.4939  143.2564  158.7119 O.2     1  UNL1       -0.2639
      4 C         138.2684  140.6725  158.8633 C.ar    1  UNL1        0.1889
      5 N         138.2251  139.4182  159.6848 N.ar    1  UNL1       -0.2231
      6 C         138.3639  139.4935  161.1765 C.ar    1  UNL1        0.1178
      7 C         138.3206  138.2392  161.9979 C.ar    1  UNL1        0.1194
      8 N         138.4594  138.3145  163.4896 N.ar    1  UNL1       -0.2421
      9 C         138.6415  139.6440  164.1597 C.ar    1  UNL1        0.0844
     10 C         138.6849  140.8983  163.3383 C.ar    1  UNL1        0.0380
     11 C         138.5460  140.8230  161.8466 C.ar    1  UNL1        0.0833
     12 N         138.1296  140.5973  157.3716 N.pl3   1  UNL1       -0.2866
     13 C         139.2468  140.0380  156.5416 C.3     1  UNL1        0.1096
     14 C         139.1080  139.9628  155.0500 C.3     1  UNL1        0.0939
     15 N         137.8518  140.4469  154.3883 N.3     1  UNL1       -0.2677
     16 C         136.7346  141.0061  155.2183 C.3     1  UNL1        0.0939
     17 C         136.8734  141.0813  156.7099 C.3     1  UNL1        0.1096
     18 C         137.7130  140.3716  152.8966 C.3     1  UNL1        0.1017
     19 C         136.5641  139.6244  152.2870 C.3     1  UNL1        0.1265
     20 C         136.7037  138.1656  151.9668 C.3     1  UNL1        0.0332
     21 O         135.2757  140.3359  151.9976 O.3     1  UNL1       -0.3830
     22 H         135.3533  141.2658  152.2625 H       1  UNL1        0.2104
     23 C         138.7803  139.7193  165.6515 C.ar    1  UNL1        0.0371
     24 C         139.7906  140.6427  166.2650 C.ar    1  UNL1        0.0078
     25 C         139.9294  140.7180  167.7568 C.ar    1  UNL1        0.0578
     26 C         139.0580  139.8697  168.6348 C.ar    1  UNL1        0.2250
     27 N         138.0477  138.9462  168.0211 N.ar    1  UNL1       -0.2101
     28 C         137.9089  138.8710  166.5295 C.ar    1  UNL1        0.1035
     29 O         139.1967  139.9449  170.1265 O.3     1  UNL1       -0.4561
     30 C         140.5592  140.0069  170.7507 C.3     1  UNL1        0.2542
     31 C         138.7715  143.4069  161.6952 C.3     1  UNL1        0.1412
     32 C         140.1473  143.9818  161.8595 C.3     1  UNL1        0.1666
     33 O         140.9819  143.6020  163.0466 O.3     1  UNL1       -0.3517
     34 C         140.8578  144.3719  164.3279 C.3     1  UNL1        0.1422
     35 C         138.4435  144.7413  165.2137 C.3     1  UNL1        0.0027
     36 C         139.7657  144.0384  165.3006 C.3     1  UNL1        0.0321
@<TRIPOS>BOND
     1    35    36    1
     2    36    34    1
     3    34    33    1
     4    33    32    1
     5    32    31    1
     6    31     1    1
     7     1     2   ar
     8     2     3    2
     9     2     4   ar
    10     4    12    1
    11    12    13    1
    12    13    14    1
    13    14    15    1
    14    15    18    1
    15    18    19    1
    16    19    20    1
    17    19    21    1
    18    15    16    1
    19    16    17    1
    20     4     5   ar
    21     5     6   ar
    22     6     7   ar
    23     7     8   ar
    24     8     9   ar
    25     9    23    1
    26    23    24   ar
    27    24    25   ar
    28    25    26   ar
    29    26    29    1
    30    29    30    1
    31    26    27   ar
    32    27    28   ar
    33     9    10   ar
    34    10    11   ar
    35    11     1   ar
    36    17    12    1
    37    11     6   ar
    38    28    23   ar
    39    21    22    1
@<TRIPOS>MOLECULE
*****
 36 39 0 0 0
SMALL
GASTEIGER

@<TRIPOS>ATOM
      1 N         140.0440  139.3242  162.3256 N.ar    1  UNL1       -0.2891
      2 C         140.3979  139.8157  163.6979 C.ar    1  UNL1        0.2927
      3 O         139.3130  140.1287  164.6853 O.2     1  UNL1       -0.2639
      4 C         141.8366  139.9942  164.0828 C.ar    1  UNL1        0.1889
      5 N         142.9215  139.6812  163.0954 N.ar    1  UNL1       -0.2231
      6 C         142.5677  139.1897  161.7230 C.ar    1  UNL1        0.1178
      7 C         143.6526  138.8767  160.7356 C.ar    1  UNL1        0.1194
      8 N         143.2988  138.3852  159.3633 N.ar    1  UNL1       -0.2421
      9 C         141.8600  138.2068  158.9785 C.ar    1  UNL1        0.0844
     10 C         140.7751  138.5197  159.9658 C.ar    1  UNL1        0.0380
     11 C         141.1290  139.0112  161.3381 C.ar    1  UNL1        0.0833
     12 N         142.1905  140.4857  165.4551 N.pl3   1  UNL1       -0.2866
     13 C         142.0028  139.5905  166.6439 C.3     1  UNL1        0.1096
     14 C         142.3567  140.0820  168.0162 C.3     1  UNL1        0.0939
     15 N         142.8981  141.4688  168.1997 N.3     1  UNL1       -0.2677
     16 C         143.0857  142.3640  167.0109 C.3     1  UNL1        0.0939
     17 C         142.7319  141.8725  165.6386 C.3     1  UNL1        0.1096
     18 C         143.2519  141.9603  169.5720 C.3     1  UNL1        0.1017
     19 C         142.1899  142.5421  170.4572 C.3     1  UNL1        0.1265
     20 C         141.1248  143.4214  169.8723 C.3     1  UNL1        0.0332
     21 O         142.1931  142.2445  171.9274 O.3     1  UNL1       -0.3830
     22 H         142.9425  141.6661  172.1386 H       1  UNL1        0.2104
     23 C         141.5062  137.7152  157.6061 C.ar    1  UNL1        0.0371
     24 C         140.1420  137.9822  157.0424 C.ar    1  UNL1        0.0078
     25 C         139.7882  137.4907  155.6701 C.ar    1  UNL1        0.0578
     26 C         140.7986  136.7322  154.8614 C.ar    1  UNL1        0.2250
     27 N         142.1628  136.4653  155.4252 N.ar    1  UNL1       -0.2101
     28 C         142.5166  136.9568  156.7975 C.ar    1  UNL1        0.1035
     29 O         140.4449  136.2407  153.4891 O.3     1  UNL1       -0.4561
     30 C         141.4034  136.4366  152.3522 C.3     1  UNL1        0.2542
     31 C         138.6053  139.1458  161.9407 C.3     1  UNL1        0.1412
     32 C         137.8502  140.2804  161.3141 C.3     1  UNL1        0.1666
     33 O         137.3555  141.4125  162.1648 O.3     1  UNL1       -0.3517
     34 C         137.8780  142.8010  161.9433 C.3     1  UNL1        0.1422
     35 C         137.6925  143.3140  164.4835 C.3     1  UNL1        0.0027
     36 C         137.8904  143.7868  163.0738 C.3     1  UNL1        0.0321
@<TRIPOS>BOND
     1    35    36    1
     2    36    34    1
     3    34    33    1
     4    33    32    1
     5    32    31    1
     6    31     1    1
     7     1     2   ar
     8     2     3    2
     9     2     4   ar
    10     4    12    1
    11    12    13    1
    12    13    14    1
    13    14    15    1
    14    15    18    1
    15    18    19    1
    16    19    20    1
    17    19    21    1
    18    15    16    1
    19    16    17    1
    20     4     5   ar
    21     5     6   ar
    22     6     7   ar
    23     7     8   ar
    24     8     9   ar
    25     9    23    1
    26    23    24   ar
    27    24    25   ar
    28    25    26   ar
    29    26    29    1
    30    29    30    1
    31    26    27   ar
    32    27    28   ar
    33     9    10   ar
    34    10    11   ar
    35    11     1   ar
    36    17    12    1
    37    11     6   ar
    38    28    23   ar
    39    21    22    1
@<TRIPOS>MOLECULE
*****
 36 39 0 0 0
SMALL
GASTEIGER

@<TRIPOS>ATOM
      1 N         143.4793  139.9386  160.9459 N.ar    1  UNL1       -0.2891
      2 C         143.7526  140.3289  159.5237 C.ar    1  UNL1        0.2927
      3 O         143.6261  139.3110  158.4290 O.2     1  UNL1       -0.2639
      4 C         144.1524  141.7370  159.1959 C.ar    1  UNL1        0.1889
      5 N         144.2789  142.7548  160.2904 N.ar    1  UNL1       -0.2231
      6 C         144.0056  142.3645  161.7128 C.ar    1  UNL1        0.1178
      7 C         144.1322  143.3823  162.8073 C.ar    1  UNL1        0.1194
      8 N         143.8589  142.9920  164.2296 N.ar    1  UNL1       -0.2421
      9 C         143.4591  141.5839  164.5574 C.ar    1  UNL1        0.0844
     10 C         143.3326  140.5661  163.4628 C.ar    1  UNL1        0.0380
     11 C         143.6059  140.9564  162.0406 C.ar    1  UNL1        0.0833
     12 N         144.4257  142.1272  157.7735 N.pl3   1  UNL1       -0.2866
     13 C         145.8127  142.0056  157.2157 C.3     1  UNL1        0.1096
     14 C         146.0859  142.3959  155.7934 C.3     1  UNL1        0.0939
     15 N         144.9721  142.9078  154.9289 N.3     1  UNL1       -0.2677
     16 C         143.5850  143.0294  155.4867 C.3     1  UNL1        0.0939
     17 C         143.3118  142.6391  156.9090 C.3     1  UNL1        0.1096
     18 C         145.2454  143.2980  153.5065 C.3     1  UNL1        0.1017
     19 C         145.7098  144.6878  153.1861 C.3     1  UNL1        0.1265
     20 C         147.1429  145.0699  153.4100 C.3     1  UNL1        0.0332
     21 O         144.7412  145.6955  152.6419 O.3     1  UNL1       -0.3830
     22 H         143.8644  145.2890  152.5585 H       1  UNL1        0.2104
     23 C         143.1858  141.1936  165.9797 C.ar    1  UNL1        0.0371
     24 C         142.9591  139.7534  166.3319 C.ar    1  UNL1        0.0078
     25 C         142.6858  139.3631  167.7543 C.ar    1  UNL1        0.0578
     26 C         142.6393  140.4132  168.8244 C.ar    1  UNL1        0.2250
     27 N         142.8661  141.8535  168.4722 N.ar    1  UNL1       -0.2101
     28 C         143.1393  142.2437  167.0499 C.ar    1  UNL1        0.1035
     29 O         142.3661  140.0230  170.2468 O.3     1  UNL1       -0.4561
     30 C         141.5221  140.9057  171.1177 C.3     1  UNL1        0.2542
     31 C         143.0796  138.5305  161.2737 C.3     1  UNL1        0.1412
     32 C         141.6309  138.1413  161.2673 C.3     1  UNL1        0.1666
     33 O         141.1038  137.1955  162.3054 O.3     1  UNL1       -0.3517
     34 C         139.8997  137.5690  163.1181 C.3     1  UNL1        0.1422
     35 C         139.4925  139.0261  165.2302 C.3     1  UNL1        0.0027
     36 C         140.0284  137.7759  164.5981 C.3     1  UNL1        0.0321
@<TRIPOS>BOND
     1    35    36    1
     2    36    34    1
     3    34    33    1
     4    33    32    1
     5    32    31    1
     6    31     1    1
     7     1     2   ar
     8     2     3    2
     9     2     4   ar
    10     4    12    1
    11    12    13    1
    12    13    14    1
    13    14    15    1
    14    15    18    1
    15    18    19    1
    16    19    20    1
    17    19    21    1
    18    15    16    1
    19    16    17    1
    20     4     5   ar
    21     5     6   ar
    22     6     7   ar
    23     7     8   ar
    24     8     9   ar
    25     9    23    1
    26    23    24   ar
    27    24    25   ar
    28    25    26   ar
    29    26    29    1
    30    29    30    1
    31    26    27   ar
    32    27    28   ar
    33     9    10   ar
    34    10    11   ar
    35    11     1   ar
    36    17    12    1
    37    11     6   ar
    38    28    23   ar
    39    21    22    1
@<TRIPOS>MOLECULE
*****
 36 39 0 0 0
SMALL
GASTEIGER

@<TRIPOS>ATOM
      1 N         140.7662  140.7104  162.0573 N.ar    1  UNL1       -0.2891
      2 C         140.8505  141.0162  163.5233 C.ar    1  UNL1        0.2927
      3 O         139.9084  142.0087  164.1379 O.2     1  UNL1       -0.2639
      4 C         141.8768  140.3296  164.3749 C.ar    1  UNL1        0.1889
      5 N         142.8188  139.3371  163.7604 N.ar    1  UNL1       -0.2231
      6 C         142.7345  139.0313  162.2943 C.ar    1  UNL1        0.1178
      7 C         143.6765  138.0388  161.6798 C.ar    1  UNL1        0.1194
      8 N         143.5922  137.7330  160.2138 N.ar    1  UNL1       -0.2421
      9 C         142.5659  138.4197  159.3622 C.ar    1  UNL1        0.0844
     10 C         141.6239  139.4121  159.9767 C.ar    1  UNL1        0.0380
     11 C         141.7082  139.7179  161.4427 C.ar    1  UNL1        0.0833
     12 N         141.9611  140.6354  165.8410 N.pl3   1  UNL1       -0.2866
     13 C         142.7838  141.7949  166.3192 C.3     1  UNL1        0.1096
     14 C         142.8681  142.1007  167.7852 C.3     1  UNL1        0.0939
     15 N         142.1296  141.2470  168.7731 N.3     1  UNL1       -0.2677
     16 C         141.3069  140.0875  168.2949 C.3     1  UNL1        0.0939
     17 C         141.2226  139.7817  166.8289 C.3     1  UNL1        0.1096
     18 C         142.2139  141.5529  170.2392 C.3     1  UNL1        0.1017
     19 C         140.9597  141.6797  171.0522 C.3     1  UNL1        0.1265
     20 C         139.9597  142.7491  170.7263 C.3     1  UNL1        0.0332
     21 O         140.7057  140.7372  172.1911 O.3     1  UNL1       -0.3830
     22 H         141.4444  140.1129  172.2652 H       1  UNL1        0.2104
     23 C         142.4816  138.1138  157.8961 C.ar    1  UNL1        0.0371
     24 C         142.1318  139.1998  156.9223 C.ar    1  UNL1        0.0078
     25 C         142.0475  138.8939  155.4562 C.ar    1  UNL1        0.0578
     26 C         142.3131  137.5021  154.9639 C.ar    1  UNL1        0.2250
     27 N         142.6629  136.4161  155.9378 N.ar    1  UNL1       -0.2101
     28 C         142.7472  136.7220  157.4038 C.ar    1  UNL1        0.1035
     29 O         142.2288  137.1962  153.4979 O.3     1  UNL1       -0.4561
     30 C         141.8098  135.8308  153.0396 C.3     1  UNL1        0.2542
     31 C         139.7398  141.3971  161.2057 C.3     1  UNL1        0.1412
     32 C         138.3212  140.9097  161.2014 C.3     1  UNL1        0.1666
     33 O         137.8727  139.8979  162.2139 O.3     1  UNL1       -0.3517
     34 C         138.1059  138.4367  161.9682 C.3     1  UNL1        0.1422
     35 C         138.9100  138.0451  164.4075 C.3     1  UNL1        0.0027
     36 C         138.8674  137.6199  162.9697 C.3     1  UNL1        0.0321
@<TRIPOS>BOND
     1    35    36    1
     2    36    34    1
     3    34    33    1
     4    33    32    1
     5    32    31    1
     6    31     1    1
     7     1     2   ar
     8     2     3    2
     9     2     4   ar
    10     4    12    1
    11    12    13    1
    12    13    14    1
    13    14    15    1
    14    15    18    1
    15    18    19    1
    16    19    20    1
    17    19    21    1
    18    15    16    1
    19    16    17    1
    20     4     5   ar
    21     5     6   ar
    22     6     7   ar
    23     7     8   ar
    24     8     9   ar
    25     9    23    1
    26    23    24   ar
    27    24    25   ar
    28    25    26   ar
    29    26    29    1
    30    29    30    1
    31    26    27   ar
    32    27    28   ar
    33     9    10   ar
    34    10    11   ar
    35    11     1   ar
    36    17    12    1
    37    11     6   ar
    38    28    23   ar
    39    21    22    1
@<TRIPOS>MOLECULE
*****
 36 39 0 0 0
SMALL
GASTEIGER

@<TRIPOS>ATOM
      1 N         141.6808  141.8753  161.2149 N.ar    1  UNL1       -0.2891
      2 C         141.6939  141.3208  162.6085 C.ar    1  UNL1        0.2927
      3 O         142.3111  139.9802  162.8766 O.2     1  UNL1       -0.2639
      4 C         141.0897  142.1069  163.7342 C.ar    1  UNL1        0.1889
      5 N         140.4724  143.4474  163.4662 N.ar    1  UNL1       -0.2231
      6 C         140.4593  144.0019  162.0724 C.ar    1  UNL1        0.1178
      7 C         139.8421  145.3425  161.8044 C.ar    1  UNL1        0.1194
      8 N         139.8290  145.8970  160.4108 N.ar    1  UNL1       -0.2421
      9 C         140.4331  145.1109  159.2851 C.ar    1  UNL1        0.0844
     10 C         141.0504  143.7703  159.5531 C.ar    1  UNL1        0.0380
     11 C         141.0635  143.2159  160.9468 C.ar    1  UNL1        0.0833
     12 N         141.1028  141.5523  165.1279 N.pl3   1  UNL1       -0.2866
     13 C         142.1817  141.9597  166.0871 C.3     1  UNL1        0.1096
     14 C         142.1948  141.4052  167.4807 C.3     1  UNL1        0.0939
     15 N         141.1290  140.4432  167.9152 N.3     1  UNL1       -0.2677
     16 C         140.0501  140.0359  166.9560 C.3     1  UNL1        0.0939
     17 C         140.0370  140.5904  165.5624 C.3     1  UNL1        0.1096
     18 C         141.1421  139.8887  169.3089 C.3     1  UNL1        0.1017
     19 C         140.1056  140.3274  170.3004 C.3     1  UNL1        0.1265
     20 C         139.5336  141.7119  170.2245 C.3     1  UNL1        0.0332
     21 O         139.6410  139.3814  171.3678 O.3     1  UNL1       -0.3830
     22 H         140.1071  138.5358  171.2756 H       1  UNL1        0.2104
     23 C         140.4200  145.6654  157.8914 C.ar    1  UNL1        0.0371
     24 C         141.4104  145.1722  156.8786 C.ar    1  UNL1        0.0078
     25 C         141.3973  145.7268  155.4849 C.ar    1  UNL1        0.0578
     26 C         140.3937  146.7745  155.1040 C.ar    1  UNL1        0.2250
     27 N         139.4032  147.2677  156.1169 N.ar    1  UNL1       -0.2101
     28 C         139.4164  146.7131  157.5105 C.ar    1  UNL1        0.1035
     29 O         140.3806  147.3290  153.7104 O.3     1  UNL1       -0.4561
     30 C         140.1544  148.7952  153.4888 C.3     1  UNL1        0.2542
     31 C         142.2849  141.0892  160.0892 C.3     1  UNL1        0.1412
     32 C         143.7657  141.1334  159.8537 C.3     1  UNL1        0.1666
     33 O         144.5265  142.4028  160.0986 O.3     1  UNL1       -0.3517
     34 C         144.9234  142.7818  161.4946 C.3     1  UNL1        0.1422
     35 C         145.3254  142.0178  163.9450 C.3     1  UNL1        0.0027
     36 C         145.3240  141.7195  162.4750 C.3     1  UNL1        0.0321
@<TRIPOS>BOND
     1    35    36    1
     2    36    34    1
     3    34    33    1
     4    33    32    1
     5    32    31    1
     6    31     1    1
     7     1     2   ar
     8     2     3    2
     9     2     4   ar
    10     4    12    1
    11    12    13    1
    12    13    14    1
    13    14    15    1
    14    15    18    1
    15    18    19    1
    16    19    20    1
    17    19    21    1
    18    15    16    1
    19    16    17    1
    20     4     5   ar
    21     5     6   ar
    22     6     7   ar
    23     7     8   ar
    24     8     9   ar
    25     9    23    1
    26    23    24   ar
    27    24    25   ar
    28    25    26   ar
    29    26    29    1
    30    29    30    1
    31    26    27   ar
    32    27    28   ar
    33     9    10   ar
    34    10    11   ar
    35    11     1   ar
    36    17    12    1
    37    11     6   ar
    38    28    23   ar
    39    21    22    1
@<TRIPOS>MOLECULE
*****
 36 39 0 0 0
SMALL
GASTEIGER

@<TRIPOS>ATOM
      1 N         141.3906  142.0424  161.1131 N.ar    1  UNL1       -0.2891
      2 C         141.3612  142.7021  159.7663 C.ar    1  UNL1        0.2927
      3 O         142.1732  142.1393  158.6376 O.2     1  UNL1       -0.2639
      4 C         140.5197  143.9245  159.5481 C.ar    1  UNL1        0.1889
      5 N         139.7077  144.4873  160.6768 N.ar    1  UNL1       -0.2231
      6 C         139.7371  143.8276  162.0237 C.ar    1  UNL1        0.1178
      7 C         138.9251  144.3904  163.1523 C.ar    1  UNL1        0.1194
      8 N         138.9545  143.7307  164.4991 N.ar    1  UNL1       -0.2421
      9 C         139.7960  142.5083  164.7173 C.ar    1  UNL1        0.0844
     10 C         140.6080  141.9455  163.5886 C.ar    1  UNL1        0.0380
     11 C         140.5786  142.6052  162.2418 C.ar    1  UNL1        0.0833
     12 N         140.4903  144.5842  158.2012 N.pl3   1  UNL1       -0.2866
     13 C         139.3810  144.2765  157.2395 C.3     1  UNL1        0.1096
     14 C         139.3517  144.9362  155.8927 C.3     1  UNL1        0.0939
     15 N         140.4315  145.9035  155.5076 N.3     1  UNL1       -0.2677
     16 C         141.5407  146.2111  156.4693 C.3     1  UNL1        0.0939
     17 C         141.5701  145.5515  157.8161 C.3     1  UNL1        0.1096
     18 C         140.4021  146.5631  154.1607 C.3     1  UNL1        0.1017
     19 C         140.1640  148.0402  154.0541 C.3     1  UNL1        0.1265
     20 C         140.4269  148.7507  152.7595 C.3     1  UNL1        0.0332
     21 O         139.6629  148.8069  155.2420 O.3     1  UNL1       -0.3830
     22 H         139.5462  148.2021  155.9913 H       1  UNL1        0.2104
     23 C         139.8254  141.8486  166.0642 C.ar    1  UNL1        0.0371
     24 C         140.4064  142.5736  167.2418 C.ar    1  UNL1        0.0078
     25 C         140.4358  141.9139  168.5887 C.ar    1  UNL1        0.0578
     26 C         139.8843  140.5293  168.7579 C.ar    1  UNL1        0.2250
     27 N         139.3033  139.8043  167.5801 N.ar    1  UNL1       -0.2101
     28 C         139.2739  140.4640  166.2333 C.ar    1  UNL1        0.1035
     29 O         139.9137  139.8696  170.1047 O.3     1  UNL1       -0.4561
     30 C         140.7632  140.4407  171.2011 C.3     1  UNL1        0.2542
     31 C         142.2321  140.8200  161.3313 C.3     1  UNL1        0.1412
     32 C         143.6397  140.9579  161.8311 C.3     1  UNL1        0.1666
     33 O         144.4075  142.2201  161.5716 O.3     1  UNL1       -0.3517
     34 C         144.5537  143.2455  162.6565 C.3     1  UNL1        0.1422
     35 C         142.9964  144.9211  163.8881 C.3     1  UNL1        0.0027
     36 C         143.7031  144.4809  162.6405 C.3     1  UNL1        0.0321
@<TRIPOS>BOND
     1    35    36    1
     2    36    34    1
     3    34    33    1
     4    33    32    1
     5    32    31    1
     6    31     1    1
     7     1     2   ar
     8     2     3    2
     9     2     4   ar
    10     4    12    1
    11    12    13    1
    12    13    14    1
    13    14    15    1
    14    15    18    1
    15    18    19    1
    16    19    20    1
    17    19    21    1
    18    15    16    1
    19    16    17    1
    20     4     5   ar
    21     5     6   ar
    22     6     7   ar
    23     7     8   ar
    24     8     9   ar
    25     9    23    1
    26    23    24   ar
    27    24    25   ar
    28    25    26   ar
    29    26    29    1
    30    29    30    1
    31    26    27   ar
    32    27    28   ar
    33     9    10   ar
    34    10    11   ar
    35    11     1   ar
    36    17    12    1
    37    11     6   ar
    38    28    23   ar
    39    21    22    1
@<TRIPOS>MOLECULE
*****
 36 39 0 0 0
SMALL
GASTEIGER

@<TRIPOS>ATOM
      1 N         140.5339  142.5787  161.9391 N.ar    1  UNL1       -0.2891
      2 C         140.9184  142.2218  163.3443 C.ar    1  UNL1        0.2927
      3 O         141.8694  143.0961  164.1067 O.2     1  UNL1       -0.2639
      4 C         140.3521  140.9905  163.9871 C.ar    1  UNL1        0.1889
      5 N         139.4011  140.1162  163.2248 N.ar    1  UNL1       -0.2231
      6 C         139.0165  140.4731  161.8195 C.ar    1  UNL1        0.1178
      7 C         138.0655  139.5988  161.0571 C.ar    1  UNL1        0.1194
      8 N         137.6810  139.9558  159.6519 N.ar    1  UNL1       -0.2421
      9 C         138.2473  141.1870  159.0091 C.ar    1  UNL1        0.0844
     10 C         139.1983  142.0613  159.7715 C.ar    1  UNL1        0.0380
     11 C         139.5829  141.7044  161.1767 C.ar    1  UNL1        0.0833
     12 N         140.7367  140.6336  165.3924 N.pl3   1  UNL1       -0.2866
     13 C         142.0007  139.8692  165.6529 C.3     1  UNL1        0.1096
     14 C         142.3853  139.5123  167.0581 C.3     1  UNL1        0.0939
     15 N         141.5058  139.9198  168.2029 N.3     1  UNL1       -0.2677
     16 C         140.2418  140.6842  167.9424 C.3     1  UNL1        0.0939
     17 C         139.8572  141.0411  166.5372 C.3     1  UNL1        0.1096
     18 C         141.8904  139.5629  169.6081 C.3     1  UNL1        0.1017
     19 C         143.0303  140.2724  170.2770 C.3     1  UNL1        0.1265
     20 C         143.3890  141.6695  169.8655 C.3     1  UNL1        0.0332
     21 O         143.8114  139.5848  171.3573 O.3     1  UNL1       -0.3830
     22 H         143.4522  138.6951  171.4996 H       1  UNL1        0.2104
     23 C         137.8627  141.5440  157.6038 C.ar    1  UNL1        0.0371
     24 C         136.6773  140.8871  156.9608 C.ar    1  UNL1        0.0078
     25 C         136.2927  141.2441  155.5556 C.ar    1  UNL1        0.0578
     26 C         137.0935  142.2578  154.7933 C.ar    1  UNL1        0.2250
     27 N         138.2789  142.9147  155.4364 N.ar    1  UNL1       -0.2101
     28 C         138.6635  142.5577  156.8416 C.ar    1  UNL1        0.1035
     29 O         136.7089  142.6148  153.3881 O.3     1  UNL1       -0.4561
     30 C         137.7189  143.2349  152.4687 C.3     1  UNL1        0.2542
     31 C         141.1002  143.8100  161.2963 C.3     1  UNL1        0.1412
     32 C         140.3576  145.1104  161.3827 C.3     1  UNL1        0.1666
     33 O         139.5938  145.4567  162.6264 O.3     1  UNL1       -0.3517
     34 C         138.2786  144.7928  162.9081 C.3     1  UNL1        0.1422
     35 C         138.6782  144.8150  165.4752 C.3     1  UNL1        0.0027
     36 C         137.9972  144.2342  164.2715 C.3     1  UNL1        0.0321
@<TRIPOS>BOND
     1    35    36    1
     2    36    34    1
     3    34    33    1
     4    33    32    1
     5    32    31    1
     6    31     1    1
     7     1     2   ar
     8     2     3    2
     9     2     4   ar
    10     4    12    1
    11    12    13    1
    12    13    14    1
    13    14    15    1
    14    15    18    1
    15    18    19    1
    16    19    20    1
    17    19    21    1
    18    15    16    1
    19    16    17    1
    20     4     5   ar
    21     5     6   ar
    22     6     7   ar
    23     7     8   ar
    24     8     9   ar
    25     9    23    1
    26    23    24   ar
    27    24    25   ar
    28    25    26   ar
    29    26    29    1
    30    29    30    1
    31    26    27   ar
    32    27    28   ar
    33     9    10   ar
    34    10    11   ar
    35    11     1   ar
    36    17    12    1
    37    11     6   ar
    38    28    23   ar
    39    21    22    1
@<TRIPOS>MOLECULE
*****
 36 39 0 0 0
SMALL
GASTEIGER

@<TRIPOS>ATOM
      1 N         141.3405  141.7476  161.6207 N.ar    1  UNL1       -0.2891
      2 C         141.2616  141.3033  163.0512 C.ar    1  UNL1        0.2927
      3 O         141.7549  139.9417  163.4420 O.2     1  UNL1       -0.2639
      4 C         140.6893  142.2206  164.0909 C.ar    1  UNL1        0.1889
      5 N         140.1960  143.5821  163.7002 N.ar    1  UNL1       -0.2231
      6 C         140.2749  144.0265  162.2696 C.ar    1  UNL1        0.1178
      7 C         139.7815  145.3880  161.8789 C.ar    1  UNL1        0.1194
      8 N         139.8605  145.8323  160.4484 N.ar    1  UNL1       -0.2421
      9 C         140.4328  144.9150  159.4086 C.ar    1  UNL1        0.0844
     10 C         140.9261  143.5535  159.7994 C.ar    1  UNL1        0.0380
     11 C         140.8472  143.1092  161.2299 C.ar    1  UNL1        0.0833
     12 N         140.6104  141.7763  165.5215 N.pl3   1  UNL1       -0.2866
     13 C         141.5681  142.3320  166.5333 C.3     1  UNL1        0.1096
     14 C         141.4891  141.8876  167.9638 C.3     1  UNL1        0.0939
     15 N         140.4525  140.8876  168.3824 N.3     1  UNL1       -0.2677
     16 C         139.4948  140.3318  167.3705 C.3     1  UNL1        0.0939
     17 C         139.5737  140.7762  165.9401 C.3     1  UNL1        0.1096
     18 C         140.3736  140.4432  169.8130 C.3     1  UNL1        0.1017
     19 C         141.6213  140.0474  170.5453 C.3     1  UNL1        0.1265
     20 C         142.4883  138.9469  170.0094 C.3     1  UNL1        0.0332
     21 O         142.0022  140.7521  171.8135 O.3     1  UNL1       -0.3830
     22 H         141.3399  141.4308  172.0177 H       1  UNL1        0.2104
     23 C         140.5117  145.3593  157.9781 C.ar    1  UNL1        0.0371
     24 C         141.4426  144.6663  157.0277 C.ar    1  UNL1        0.0078
     25 C         141.5215  145.1107  155.5972 C.ar    1  UNL1        0.0578
     26 C         140.6695  146.2480  155.1170 C.ar    1  UNL1        0.2250
     27 N         139.7385  146.9410  156.0674 N.ar    1  UNL1       -0.2101
     28 C         139.6597  146.4967  157.4979 C.ar    1  UNL1        0.1035
     29 O         140.7483  146.6924  153.6866 O.3     1  UNL1       -0.4561
     30 C         141.8480  146.1831  152.8026 C.3     1  UNL1        0.2542
     31 C         141.9128  140.8303  160.5809 C.3     1  UNL1        0.1412
     32 C         141.0615  139.7487  159.9846 C.3     1  UNL1        0.1666
     33 O         139.6391  139.5821  160.4307 O.3     1  UNL1       -0.3517
     34 C         139.2393  138.3758  161.2274 C.3     1  UNL1        0.1422
     35 C         139.0121  137.6678  163.7168 C.3     1  UNL1        0.0027
     36 C         138.5973  138.5444  162.5726 C.3     1  UNL1        0.0321
@<TRIPOS>BOND
     1    35    36    1
     2    36    34    1
     3    34    33    1
     4    33    32    1
     5    32    31    1
     6    31     1    1
     7     1     2   ar
     8     2     3    2
     9     2     4   ar
    10     4    12    1
    11    12    13    1
    12    13    14    1
    13    14    15    1
    14    15    18    1
    15    18    19    1
    16    19    20    1
    17    19    21    1
    18    15    16    1
    19    16    17    1
    20     4     5   ar
    21     5     6   ar
    22     6     7   ar
    23     7     8   ar
    24     8     9   ar
    25     9    23    1
    26    23    24   ar
    27    24    25   ar
    28    25    26   ar
    29    26    29    1
    30    29    30    1
    31    26    27   ar
    32    27    28   ar
    33     9    10   ar
    34    10    11   ar
    35    11     1   ar
    36    17    12    1
    37    11     6   ar
    38    28    23   ar
    39    21    22    1
@<TRIPOS>MOLECULE
*****
 36 39 0 0 0
SMALL
GASTEIGER

@<TRIPOS>ATOM
      1 N         139.9854  142.5968  160.8087 N.ar    1  UNL1       -0.2891
      2 C         139.8654  143.3446  159.5140 C.ar    1  UNL1        0.2927
      3 O         138.7453  143.0301  158.5672 O.2     1  UNL1       -0.2639
      4 C         140.8655  144.4071  159.1661 C.ar    1  UNL1        0.1889
      5 N         141.9856  144.7216  160.1129 N.ar    1  UNL1       -0.2231
      6 C         142.1056  143.9737  161.4076 C.ar    1  UNL1        0.1178
      7 C         143.2257  144.2883  162.3544 C.ar    1  UNL1        0.1194
      8 N         143.3457  143.5404  163.6491 N.ar    1  UNL1       -0.2421
      9 C         142.3456  142.4779  163.9970 C.ar    1  UNL1        0.0844
     10 C         141.2255  142.1634  163.0502 C.ar    1  UNL1        0.0380
     11 C         141.1055  142.9113  161.7555 C.ar    1  UNL1        0.0833
     12 N         140.7455  145.1550  157.8714 N.pl3   1  UNL1       -0.2866
     13 C         139.6954  146.2141  157.7116 C.3     1  UNL1        0.1096
     14 C         139.5754  146.9620  156.4169 C.3     1  UNL1        0.0939
     15 N         140.5055  146.6507  155.2820 N.3     1  UNL1       -0.2677
     16 C         141.5555  145.5916  155.4418 C.3     1  UNL1        0.0939
     17 C         141.6755  144.8437  156.7364 C.3     1  UNL1        0.1096
     18 C         140.3854  147.3986  153.9872 C.3     1  UNL1        0.1017
     19 C         140.1353  148.8776  153.9958 C.3     1  UNL1        0.1265
     20 C         140.0472  149.6308  152.7017 C.3     1  UNL1        0.0332
     21 O         139.9734  149.6033  155.2985 O.3     1  UNL1       -0.3830
     22 H         140.0576  148.9740  156.0319 H       1  UNL1        0.2104
     23 C         142.4657  141.7300  165.2917 C.ar    1  UNL1        0.0371
     24 C         142.8286  140.2746  165.2863 C.ar    1  UNL1        0.0078
     25 C         142.9487  139.5267  166.5810 C.ar    1  UNL1        0.0578
     26 C         142.7057  140.2343  167.8812 C.ar    1  UNL1        0.2250
     27 N         142.3427  141.6897  167.8866 N.ar    1  UNL1       -0.2101
     28 C         142.2227  142.4376  166.5919 C.ar    1  UNL1        0.1035
     29 O         142.8258  139.4864  169.1759 O.3     1  UNL1       -0.4561
     30 C         142.9798  140.2382  170.4647 C.3     1  UNL1        0.2542
     31 C         138.9853  141.5343  161.1566 C.3     1  UNL1        0.1412
     32 C         137.7359  141.8962  161.9037 C.3     1  UNL1        0.1666
     33 O         137.5760  141.4900  163.3388 O.3     1  UNL1       -0.3517
     34 C         137.7740  142.4995  164.4304 C.3     1  UNL1        0.1422
     35 C         138.9528  144.7348  165.0332 C.3     1  UNL1        0.0027
     36 C         138.1253  143.9167  164.0868 C.3     1  UNL1        0.0321
@<TRIPOS>BOND
     1    35    36    1
     2    36    34    1
     3    34    33    1
     4    33    32    1
     5    32    31    1
     6    31     1    1
     7     1     2   ar
     8     2     3    2
     9     2     4   ar
    10     4    12    1
    11    12    13    1
    12    13    14    1
    13    14    15    1
    14    15    18    1
    15    18    19    1
    16    19    20    1
    17    19    21    1
    18    15    16    1
    19    16    17    1
    20     4     5   ar
    21     5     6   ar
    22     6     7   ar
    23     7     8   ar
    24     8     9   ar
    25     9    23    1
    26    23    24   ar
    27    24    25   ar
    28    25    26   ar
    29    26    29    1
    30    29    30    1
    31    26    27   ar
    32    27    28   ar
    33     9    10   ar
    34    10    11   ar
    35    11     1   ar
    36    17    12    1
    37    11     6   ar
    38    28    23   ar
    39    21    22    1
