@<TRIPOS>MOLECULE
*****
 34 37 0 0 0
SMALL
GASTEIGER

@<TRIPOS>ATOM
      1 N         142.7205  139.2017  159.3447 N.pl3   1  UNL1       -0.2907
      2 C         141.4854  140.0159  159.5930 C.3     1  UNL1        0.0927
      3 C         140.8357  139.9998  160.9448 C.3     1  UNL1        0.0290
      4 C         141.4210  139.1695  162.0485 C.3     1  UNL1        0.0603
      5 C         142.6561  138.3552  161.8002 C.3     1  UNL1        0.0290
      6 C         143.3058  138.3713  160.4483 C.3     1  UNL1        0.0927
      7 C         142.9625  138.2169  156.9527 C.ar    1  UNL1        0.2010
      8 C         143.6122  138.2330  155.6009 C.ar    1  UNL1        0.1643
      9 N         143.2044  137.2321  154.5607 N.pl3   1  UNL1       -0.3401
     10 N         144.6697  139.2501  155.2891 N.ar    1  UNL1       -0.2062
     11 C         145.0775  140.2510  156.3292 C.ar    1  UNL1        0.2014
     12 N         144.4278  140.2349  157.6810 N.ar    1  UNL1       -0.2058
     13 C         143.3702  139.2178  157.9928 C.ar    1  UNL1        0.1705
     14 H         142.5104  136.5645  154.7653 H       1  UNL1        0.1438
     15 H         143.6309  137.2427  153.6734 H       1  UNL1        0.1438
     16 C         140.4867  137.4377  156.8381 C.3     1  UNL1        0.2528
     17 O         141.9049  137.1998  157.2645 O.3     1  UNL1       -0.4658
     18 C         140.7712  139.1534  163.4003 C.ar    1  UNL1        0.1200
     19 N         141.2972  139.8154  164.6393 N.ar    1  UNL1       -0.2309
     20 C         140.3325  139.5437  165.7552 C.ar    1  UNL1        0.0997
     21 C         139.2102  138.7136  165.2060 C.ar    1  UNL1        0.0962
     22 N         139.4814  138.4724  163.7506 N.ar    1  UNL1       -0.3117
     23 C         138.6149  137.6879  162.8105 C.3     1  UNL1        0.1317
     24 C         140.4664  140.0185  167.1718 C.ar    1  UNL1        0.0193
     25 C         139.2983  139.9245  168.1080 C.ar    1  UNL1        0.0038
     26 C         139.4321  140.3994  169.5244 C.ar    1  UNL1        0.0296
     27 C         140.7344  140.9683  170.0049 C.ar    1  UNL1        0.1440
     28 F         140.8683  141.4432  171.4213 F       1  UNL1       -0.2042
     29 C         141.9025  141.0624  169.0686 C.ar    1  UNL1        0.0988
     30 C         141.7686  140.5875  167.6521 C.ar    1  UNL1        0.0077
     31 C         143.2047  141.6313  169.5490 C.3     1  UNL1        0.4207
     32 F         144.5068  142.2002  170.0293 F       1  UNL1       -0.1658
     33 F         142.9570  142.8748  168.7475 F       1  UNL1       -0.1658
     34 F         143.4523  140.3878  170.3504 F       1  UNL1       -0.1658
@<TRIPOS>BOND
     1    16    17    1
     2    17     7    1
     3     7     8   ar
     4     8     9    1
     5     8    10   ar
     6    10    11   ar
     7    11    12   ar
     8    12    13   ar
     9    13     1    1
    10     1     2    1
    11     2     3    1
    12     3     4    1
    13     4    18    1
    14    18    19   ar
    15    19    20   ar
    16    20    24    1
    17    24    25   ar
    18    25    26   ar
    19    26    27   ar
    20    27    28    1
    21    27    29   ar
    22    29    31    1
    23    31    32    1
    24    31    33    1
    25    31    34    1
    26    29    30   ar
    27    20    21   ar
    28    21    22   ar
    29    22    23    1
    30     4     5    1
    31     5     6    1
    32    13     7   ar
    33     6     1    1
    34    22    18   ar
    35    30    24   ar
    36     9    14    1
    37     9    15    1
@<TRIPOS>MOLECULE
*****
 34 37 0 0 0
SMALL
GASTEIGER

@<TRIPOS>ATOM
      1 N         142.5769  138.4541  159.1166 N.pl3   1  UNL1       -0.2907
      2 C         142.4377  139.9363  159.3000 C.3     1  UNL1        0.0927
      3 C         142.6819  140.5517  160.6460 C.3     1  UNL1        0.0290
      4 C         143.0653  139.6849  161.8086 C.3     1  UNL1        0.0603
      5 C         143.2045  138.2026  161.6252 C.3     1  UNL1        0.0290
      6 C         142.9603  137.5873  160.2791 C.3     1  UNL1        0.0927
      7 C         140.9294  137.5878  157.3040 C.ar    1  UNL1        0.2010
      8 C         140.6853  136.9724  155.9581 C.ar    1  UNL1        0.1643
      9 N         139.2819  136.7214  155.4915 N.pl3   1  UNL1       -0.3401
     10 N         141.8445  136.6081  155.0786 N.ar    1  UNL1       -0.2062
     11 C         143.2478  136.8590  155.5451 C.ar    1  UNL1        0.2014
     12 N         143.4919  137.4744  156.8910 N.ar    1  UNL1       -0.2058
     13 C         142.3327  137.8387  157.7705 C.ar    1  UNL1        0.1705
     14 H         138.5211  136.9606  156.0687 H       1  UNL1        0.1438
     15 H         139.1217  136.3176  154.6081 H       1  UNL1        0.1438
     16 C         139.1523  139.3153  158.0835 C.3     1  UNL1        0.2528
     17 O         139.7702  137.9521  158.1835 O.3     1  UNL1       -0.4658
     18 C         143.3094  140.3002  163.1545 C.ar    1  UNL1        0.1200
     19 N         142.5531  139.9956  164.4136 N.ar    1  UNL1       -0.2309
     20 C         143.1290  140.8354  165.5150 C.ar    1  UNL1        0.0997
     21 C         144.2413  141.6590  164.9367 C.ar    1  UNL1        0.0962
     22 N         144.3528  141.3283  163.4778 N.ar    1  UNL1       -0.3117
     23 C         145.3352  141.9214  162.5119 C.3     1  UNL1        0.1317
     24 C         142.6727  140.8492  166.9438 C.ar    1  UNL1        0.0193
     25 C         142.7086  139.5878  167.7548 C.ar    1  UNL1        0.0038
     26 C         142.2524  139.6015  169.1836 C.ar    1  UNL1        0.0296
     27 C         141.7601  140.8767  169.8016 C.ar    1  UNL1        0.1440
     28 F         141.3039  140.8904  171.2303 F       1  UNL1       -0.2042
     29 C         141.7242  142.1380  168.9906 C.ar    1  UNL1        0.0988
     30 C         142.1805  142.1243  167.5617 C.ar    1  UNL1        0.0077
     31 C         141.2320  143.4131  169.6085 C.3     1  UNL1        0.4207
     32 F         140.7398  144.6882  170.2264 F       1  UNL1       -0.1658
     33 F         142.5246  143.5493  170.3571 F       1  UNL1       -0.1658
     34 F         139.9393  143.2769  168.8598 F       1  UNL1       -0.1658
@<TRIPOS>BOND
     1    16    17    1
     2    17     7    1
     3     7     8   ar
     4     8     9    1
     5     8    10   ar
     6    10    11   ar
     7    11    12   ar
     8    12    13   ar
     9    13     1    1
    10     1     2    1
    11     2     3    1
    12     3     4    1
    13     4    18    1
    14    18    19   ar
    15    19    20   ar
    16    20    24    1
    17    24    25   ar
    18    25    26   ar
    19    26    27   ar
    20    27    28    1
    21    27    29   ar
    22    29    31    1
    23    31    32    1
    24    31    33    1
    25    31    34    1
    26    29    30   ar
    27    20    21   ar
    28    21    22   ar
    29    22    23    1
    30     4     5    1
    31     5     6    1
    32    13     7   ar
    33     6     1    1
    34    22    18   ar
    35    30    24   ar
    36     9    14    1
    37     9    15    1
@<TRIPOS>MOLECULE
*****
 34 37 0 0 0
SMALL
GASTEIGER

@<TRIPOS>ATOM
      1 N         140.4021  139.0573  159.2016 N.pl3   1  UNL1       -0.2907
      2 C         139.6378  138.5255  160.3776 C.3     1  UNL1        0.0927
      3 C         139.5572  139.3257  161.6438 C.3     1  UNL1        0.0290
      4 C         140.2410  140.6578  161.7340 C.3     1  UNL1        0.0603
      5 C         141.0053  141.1896  160.5579 C.3     1  UNL1        0.0290
      6 C         141.0858  140.3893  159.2917 C.3     1  UNL1        0.0927
      7 C         141.7879  137.6508  157.5130 C.ar    1  UNL1        0.2010
      8 C         141.8684  136.8506  156.2469 C.ar    1  UNL1        0.1643
      9 N         143.1738  136.2443  155.8245 N.pl3   1  UNL1       -0.3401
     10 N         140.6434  136.6566  155.4031 N.ar    1  UNL1       -0.2062
     11 C         139.3381  137.2629  155.8255 C.ar    1  UNL1        0.2014
     12 N         139.2576  138.0631  157.0916 N.ar    1  UNL1       -0.2058
     13 C         140.4826  138.2571  157.9354 C.ar    1  UNL1        0.1705
     14 H         143.9778  136.3716  156.3783 H       1  UNL1        0.1438
     15 H         143.2266  135.7191  154.9934 H       1  UNL1        0.1438
     16 C         143.0854  137.2344  159.7250 C.3     1  UNL1        0.2528
     17 O         143.0128  137.8448  158.3568 O.3     1  UNL1       -0.4658
     18 C         140.1605  141.4579  163.0001 C.ar    1  UNL1        0.1200
     19 N         140.9879  141.2435  164.2327 N.ar    1  UNL1       -0.2309
     20 C         140.5773  142.2661  165.2504 C.ar    1  UNL1        0.0997
     21 C         139.4960  143.1126  164.6467 C.ar    1  UNL1        0.0962
     22 N         139.2385  142.6131  163.2560 N.ar    1  UNL1       -0.3117
     23 C         138.2350  143.1709  162.2906 C.3     1  UNL1        0.1317
     24 C         141.1477  142.4159  166.6296 C.ar    1  UNL1        0.0193
     25 C         142.6146  142.2055  166.8615 C.ar    1  UNL1        0.0038
     26 C         143.1851  142.3553  168.2406 C.ar    1  UNL1        0.0296
     27 C         142.2885  142.7155  169.3880 C.ar    1  UNL1        0.1440
     28 F         142.8589  142.8654  170.7672 F       1  UNL1       -0.2042
     29 C         140.8216  142.9260  169.1562 C.ar    1  UNL1        0.0988
     30 C         140.2511  142.7761  167.7769 C.ar    1  UNL1        0.0077
     31 C         139.9250  143.2862  170.3035 C.3     1  UNL1        0.4207
     32 F         139.0285  143.6465  171.4508 F       1  UNL1       -0.1658
     33 F         139.3788  141.8893  170.3153 F       1  UNL1       -0.1658
     34 F         140.4712  144.6832  170.2917 F       1  UNL1       -0.1658
@<TRIPOS>BOND
     1    16    17    1
     2    17     7    1
     3     7     8   ar
     4     8     9    1
     5     8    10   ar
     6    10    11   ar
     7    11    12   ar
     8    12    13   ar
     9    13     1    1
    10     1     2    1
    11     2     3    1
    12     3     4    1
    13     4    18    1
    14    18    19   ar
    15    19    20   ar
    16    20    24    1
    17    24    25   ar
    18    25    26   ar
    19    26    27   ar
    20    27    28    1
    21    27    29   ar
    22    29    31    1
    23    31    32    1
    24    31    33    1
    25    31    34    1
    26    29    30   ar
    27    20    21   ar
    28    21    22   ar
    29    22    23    1
    30     4     5    1
    31     5     6    1
    32    13     7   ar
    33     6     1    1
    34    22    18   ar
    35    30    24   ar
    36     9    14    1
    37     9    15    1
@<TRIPOS>MOLECULE
*****
 34 37 0 0 0
SMALL
GASTEIGER

@<TRIPOS>ATOM
      1 N         141.0862  138.8234  159.2094 N.pl3   1  UNL1       -0.2907
      2 C         140.0340  138.4376  160.2063 C.3     1  UNL1        0.0927
      3 C         139.8578  139.2418  161.4601 C.3     1  UNL1        0.0290
      4 C         140.7339  140.4320  161.7171 C.3     1  UNL1        0.0603
      5 C         141.7862  140.8179  160.7202 C.3     1  UNL1        0.0290
      6 C         141.9623  140.0135  159.4663 C.3     1  UNL1        0.0927
      7 C         140.1888  138.0183  156.9080 C.ar    1  UNL1        0.2010
      8 C         140.3650  137.2140  155.6542 C.ar    1  UNL1        0.1643
      9 N         139.2914  137.2131  154.6066 N.pl3   1  UNL1       -0.3401
     10 N         141.6148  136.4105  155.4480 N.ar    1  UNL1       -0.2062
     11 C         142.6883  136.4113  156.4955 C.ar    1  UNL1        0.2014
     12 N         142.5121  137.2156  157.7493 N.ar    1  UNL1       -0.2058
     13 C         141.2624  138.0191  157.9556 C.ar    1  UNL1        0.1705
     14 H         138.4712  137.7405  154.7419 H       1  UNL1        0.1438
     15 H         139.4071  136.6852  153.7837 H       1  UNL1        0.1438
     16 C         138.8994  140.2647  156.7067 C.3     1  UNL1        0.2528
     17 O         138.9391  138.8218  157.1142 O.3     1  UNL1       -0.4658
     18 C         140.5577  141.2362  162.9709 C.ar    1  UNL1        0.1200
     19 N         141.3554  141.0884  164.2326 N.ar    1  UNL1       -0.2309
     20 C         140.8436  142.0903  165.2246 C.ar    1  UNL1        0.0997
     21 C         139.7296  142.8574  164.5761 C.ar    1  UNL1        0.0962
     22 N         139.5529  142.3296  163.1832 N.ar    1  UNL1       -0.3117
     23 C         138.5479  142.8106  162.1790 C.3     1  UNL1        0.1317
     24 C         141.3558  142.2901  166.6203 C.ar    1  UNL1        0.0193
     25 C         142.8136  142.1005  166.9184 C.ar    1  UNL1        0.0038
     26 C         143.3259  142.3003  168.3139 C.ar    1  UNL1        0.0296
     27 C         142.3804  142.6897  169.4115 C.ar    1  UNL1        0.1440
     28 F         142.8926  142.8894  170.8070 F       1  UNL1       -0.2042
     29 C         140.9226  142.8792  169.1133 C.ar    1  UNL1        0.0988
     30 C         140.4103  142.6795  167.7177 C.ar    1  UNL1        0.0077
     31 C         139.9771  143.2686  170.2107 C.3     1  UNL1        0.4207
     32 F         139.0316  143.6580  171.3081 F       1  UNL1       -0.1658
     33 F         139.5029  141.8487  170.3060 F       1  UNL1       -0.1658
     34 F         140.4512  144.6885  170.1154 F       1  UNL1       -0.1658
@<TRIPOS>BOND
     1    16    17    1
     2    17     7    1
     3     7     8   ar
     4     8     9    1
     5     8    10   ar
     6    10    11   ar
     7    11    12   ar
     8    12    13   ar
     9    13     1    1
    10     1     2    1
    11     2     3    1
    12     3     4    1
    13     4    18    1
    14    18    19   ar
    15    19    20   ar
    16    20    24    1
    17    24    25   ar
    18    25    26   ar
    19    26    27   ar
    20    27    28    1
    21    27    29   ar
    22    29    31    1
    23    31    32    1
    24    31    33    1
    25    31    34    1
    26    29    30   ar
    27    20    21   ar
    28    21    22   ar
    29    22    23    1
    30     4     5    1
    31     5     6    1
    32    13     7   ar
    33     6     1    1
    34    22    18   ar
    35    30    24   ar
    36     9    14    1
    37     9    15    1
@<TRIPOS>MOLECULE
*****
 34 37 0 0 0
SMALL
GASTEIGER

@<TRIPOS>ATOM
      1 N         142.7637  139.4323  159.7720 N.pl3   1  UNL1       -0.2907
      2 C         143.4300  138.7197  160.9114 C.3     1  UNL1        0.0927
      3 C         142.7736  138.6830  162.2597 C.3     1  UNL1        0.0290
      4 C         141.4508  139.3588  162.4685 C.3     1  UNL1        0.0603
      5 C         140.7845  140.0714  161.3291 C.3     1  UNL1        0.0290
      6 C         141.4410  140.1081  159.9808 C.3     1  UNL1        0.0927
      7 C         144.2867  140.6326  158.0430 C.ar    1  UNL1        0.2010
      8 C         144.9431  140.6693  156.6947 C.ar    1  UNL1        0.1643
      9 N         145.8098  141.8329  156.3139 N.pl3   1  UNL1       -0.3401
     10 N         144.7330  139.5424  155.7273 N.ar    1  UNL1       -0.2062
     11 C         143.8664  138.3788  156.1081 C.ar    1  UNL1        0.2014
     12 N         143.2100  138.3421  157.4563 N.ar    1  UNL1       -0.2058
     13 C         143.4201  139.4690  158.4237 C.ar    1  UNL1        0.1705
     14 H         145.9477  142.5726  156.9488 H       1  UNL1        0.1438
     15 H         146.2406  141.8570  155.4290 H       1  UNL1        0.1438
     16 C         143.5986  142.9601  158.9700 C.3     1  UNL1        0.2528
     17 O         144.4969  141.7595  159.0104 O.3     1  UNL1       -0.4658
     18 C         140.7944  139.3221  163.8168 C.ar    1  UNL1        0.1200
     19 N         141.2427  140.0716  165.0363 N.ar    1  UNL1       -0.2309
     20 C         140.2998  139.7421  166.1554 C.ar    1  UNL1        0.0997
     21 C         139.2688  138.7889  165.6276 C.ar    1  UNL1        0.0962
     22 N         139.5745  138.5294  164.1822 N.ar    1  UNL1       -0.3117
     23 C         138.7969  137.6342  163.2635 C.3     1  UNL1        0.1317
     24 C         140.3748  140.2726  167.5565 C.ar    1  UNL1        0.0193
     25 C         139.2289  140.0609  168.5010 C.ar    1  UNL1        0.0038
     26 C         139.3037  140.5913  169.9020 C.ar    1  UNL1        0.0296
     27 C         140.5247  141.3337  170.3586 C.ar    1  UNL1        0.1440
     28 F         140.5997  141.8642  171.7596 F       1  UNL1       -0.2042
     29 C         141.6706  141.5454  169.4142 C.ar    1  UNL1        0.0988
     30 C         141.5957  141.0149  168.0131 C.ar    1  UNL1        0.0077
     31 C         142.8915  142.2877  169.8707 C.3     1  UNL1        0.4207
     32 F         144.1123  143.0299  170.3273 F       1  UNL1       -0.1658
     33 F         143.6793  141.0116  169.8387 F       1  UNL1       -0.1658
     34 F         142.1037  143.5637  169.9028 F       1  UNL1       -0.1658
@<TRIPOS>BOND
     1    16    17    1
     2    17     7    1
     3     7     8   ar
     4     8     9    1
     5     8    10   ar
     6    10    11   ar
     7    11    12   ar
     8    12    13   ar
     9    13     1    1
    10     1     2    1
    11     2     3    1
    12     3     4    1
    13     4    18    1
    14    18    19   ar
    15    19    20   ar
    16    20    24    1
    17    24    25   ar
    18    25    26   ar
    19    26    27   ar
    20    27    28    1
    21    27    29   ar
    22    29    31    1
    23    31    32    1
    24    31    33    1
    25    31    34    1
    26    29    30   ar
    27    20    21   ar
    28    21    22   ar
    29    22    23    1
    30     4     5    1
    31     5     6    1
    32    13     7   ar
    33     6     1    1
    34    22    18   ar
    35    30    24   ar
    36     9    14    1
    37     9    15    1
@<TRIPOS>MOLECULE
*****
 34 37 0 0 0
SMALL
GASTEIGER

@<TRIPOS>ATOM
      1 N         140.9665  140.9517  166.3672 N.pl3   1  UNL1       -0.2907
      2 C         140.3143  141.5847  165.1739 C.3     1  UNL1        0.0927
      3 C         140.7623  141.2159  163.7907 C.3     1  UNL1        0.0290
      4 C         141.8625  140.2142  163.6007 C.3     1  UNL1        0.0603
      5 C         142.5147  139.5812  164.7940 C.3     1  UNL1        0.0290
      6 C         142.0667  139.9500  166.1773 C.3     1  UNL1        0.0927
      7 C         139.5975  140.4108  168.5080 C.ar    1  UNL1        0.2010
      8 C         139.1495  140.7796  169.8912 C.ar    1  UNL1        0.1643
      9 N         138.2285  139.8698  170.6489 N.pl3   1  UNL1       -0.3401
     10 N         139.6225  142.0582  170.5168 N.ar    1  UNL1       -0.2062
     11 C         140.5435  142.9680  169.7592 C.ar    1  UNL1        0.2014
     12 N         140.9915  142.5992  168.3760 N.ar    1  UNL1       -0.2058
     13 C         140.5185  141.3206  167.7504 C.ar    1  UNL1        0.1705
     14 H         137.9180  139.0305  170.2383 H       1  UNL1        0.1438
     15 H         137.9344  140.1119  171.5567 H       1  UNL1        0.1438
     16 C         138.0075  139.1551  166.8816 C.3     1  UNL1        0.2528
     17 O         139.1245  139.1321  167.8824 O.3     1  UNL1       -0.4658
     18 C         142.3105  139.8454  162.2175 C.ar    1  UNL1        0.1200
     19 N         141.5156  139.0669  161.2115 N.ar    1  UNL1       -0.2309
     20 C         142.3458  138.9307  159.9697 C.ar    1  UNL1        0.0997
     21 C         143.6539  139.6251  160.2082 C.ar    1  UNL1        0.0962
     22 N         143.6321  140.1903  161.5974 N.ar    1  UNL1       -0.3117
     23 C         144.7377  140.9646  162.2517 C.3     1  UNL1        0.1317
     24 C         141.9394  138.2242  158.7105 C.ar    1  UNL1        0.0193
     25 C         140.6319  138.5546  158.0537 C.ar    1  UNL1        0.0038
     26 C         140.2254  137.8482  156.7946 C.ar    1  UNL1        0.0296
     27 C         141.1265  136.8113  156.1919 C.ar    1  UNL1        0.1440
     28 F         140.7201  136.1049  154.9327 F       1  UNL1       -0.2042
     29 C         142.4340  136.4810  156.8486 C.ar    1  UNL1        0.0988
     30 C         142.8405  137.1875  158.1079 C.ar    1  UNL1        0.0077
     31 C         143.3351  135.4442  156.2461 C.3     1  UNL1        0.4207
     32 F         144.2361  134.4074  155.6435 F       1  UNL1       -0.1658
     33 F         144.2141  136.5279  155.6959 F       1  UNL1       -0.1658
     34 F         142.4560  134.3604  156.7963 F       1  UNL1       -0.1658
@<TRIPOS>BOND
     1    16    17    1
     2    17     7    1
     3     7     8   ar
     4     8     9    1
     5     8    10   ar
     6    10    11   ar
     7    11    12   ar
     8    12    13   ar
     9    13     1    1
    10     1     2    1
    11     2     3    1
    12     3     4    1
    13     4    18    1
    14    18    19   ar
    15    19    20   ar
    16    20    24    1
    17    24    25   ar
    18    25    26   ar
    19    26    27   ar
    20    27    28    1
    21    27    29   ar
    22    29    31    1
    23    31    32    1
    24    31    33    1
    25    31    34    1
    26    29    30   ar
    27    20    21   ar
    28    21    22   ar
    29    22    23    1
    30     4     5    1
    31     5     6    1
    32    13     7   ar
    33     6     1    1
    34    22    18   ar
    35    30    24   ar
    36     9    14    1
    37     9    15    1
@<TRIPOS>MOLECULE
*****
 34 37 0 0 0
SMALL
GASTEIGER

@<TRIPOS>ATOM
      1 N         141.9948  138.7366  159.0229 N.pl3   1  UNL1       -0.2907
      2 C         142.8181  137.9174  159.9722 C.3     1  UNL1        0.0927
      3 C         143.1706  138.4645  161.3236 C.3     1  UNL1        0.0290
      4 C         142.6999  139.8308  161.7258 C.3     1  UNL1        0.0603
      5 C         141.8766  140.6500  160.7765 C.3     1  UNL1        0.0290
      6 C         141.5240  140.1028  159.4250 C.3     1  UNL1        0.0927
      7 C         142.6553  138.2123  156.5655 C.ar    1  UNL1        0.2010
      8 C         142.3028  137.6651  155.2141 C.ar    1  UNL1        0.1643
      9 N         143.3158  137.6879  154.1081 N.pl3   1  UNL1       -0.3401
     10 N         140.9372  137.0951  154.9687 N.ar    1  UNL1       -0.2062
     11 C         139.9241  137.0723  156.0746 C.ar    1  UNL1        0.2014
     12 N         140.2767  137.6194  157.4260 N.ar    1  UNL1       -0.2058
     13 C         141.6423  138.1894  157.6714 C.ar    1  UNL1        0.1705
     14 H         144.2121  138.0620  154.2691 H       1  UNL1        0.1438
     15 H         143.0844  137.3288  153.2211 H       1  UNL1        0.1438
     16 C         144.2771  140.2419  156.5794 C.3     1  UNL1        0.2528
     17 O         144.0209  138.7822  156.8109 O.3     1  UNL1       -0.4658
     18 C         143.0524  140.3779  163.0772 C.ar    1  UNL1        0.1200
     19 N         142.3253  140.0977  164.3589 N.ar    1  UNL1       -0.2309
     20 C         143.0174  140.8479  165.4580 C.ar    1  UNL1        0.0997
     21 C         144.1723  141.5918  164.8556 C.ar    1  UNL1        0.0962
     22 N         144.1939  141.3014  163.3842 N.ar    1  UNL1       -0.3117
     23 C         145.1833  141.8398  162.3937 C.3     1  UNL1        0.1317
     24 C         142.6238  140.8532  166.9055 C.ar    1  UNL1        0.0193
     25 C         142.7215  139.5935  167.7140 C.ar    1  UNL1        0.0038
     26 C         142.3280  139.5988  169.1613 C.ar    1  UNL1        0.0296
     27 C         141.8366  140.8639  169.8004 C.ar    1  UNL1        0.1440
     28 F         141.4430  140.8692  171.2477 F       1  UNL1       -0.2042
     29 C         141.7389  142.1235  168.9919 C.ar    1  UNL1        0.0988
     30 C         142.1325  142.1182  167.5445 C.ar    1  UNL1        0.0077
     31 C         141.2475  143.3885  169.6309 C.3     1  UNL1        0.4207
     32 F         140.7562  144.6536  170.2698 F       1  UNL1       -0.1658
     33 F         142.5525  143.5285  170.3572 F       1  UNL1       -0.1658
     34 F         139.9426  143.2486  168.9045 F       1  UNL1       -0.1658
@<TRIPOS>BOND
     1    16    17    1
     2    17     7    1
     3     7     8   ar
     4     8     9    1
     5     8    10   ar
     6    10    11   ar
     7    11    12   ar
     8    12    13   ar
     9    13     1    1
    10     1     2    1
    11     2     3    1
    12     3     4    1
    13     4    18    1
    14    18    19   ar
    15    19    20   ar
    16    20    24    1
    17    24    25   ar
    18    25    26   ar
    19    26    27   ar
    20    27    28    1
    21    27    29   ar
    22    29    31    1
    23    31    32    1
    24    31    33    1
    25    31    34    1
    26    29    30   ar
    27    20    21   ar
    28    21    22   ar
    29    22    23    1
    30     4     5    1
    31     5     6    1
    32    13     7   ar
    33     6     1    1
    34    22    18   ar
    35    30    24   ar
    36     9    14    1
    37     9    15    1
@<TRIPOS>MOLECULE
*****
 34 37 0 0 0
SMALL
GASTEIGER

@<TRIPOS>ATOM
      1 N         138.9645  142.1868  159.6648 N.pl3   1  UNL1       -0.2907
      2 C         139.9521  141.0749  159.8606 C.3     1  UNL1        0.0927
      3 C         140.1142  140.4451  161.2122 C.3     1  UNL1        0.0290
      4 C         139.2887  140.9271  162.3682 C.3     1  UNL1        0.0603
      5 C         138.3011  142.0390  162.1725 C.3     1  UNL1        0.0290
      6 C         138.1390  142.6688  160.8207 C.3     1  UNL1        0.0927
      7 C         139.7783  143.8565  157.8483 C.ar    1  UNL1        0.2010
      8 C         139.6162  144.4862  156.4966 C.ar    1  UNL1        0.1643
      9 N         140.5922  145.5262  156.0317 N.pl3   1  UNL1       -0.3401
     10 N         138.4781  144.0761  155.6097 N.ar    1  UNL1       -0.2062
     11 C         137.5021  143.0362  156.0745 C.ar    1  UNL1        0.2014
     12 N         137.6643  142.4065  157.4262 N.ar    1  UNL1       -0.2058
     13 C         138.8024  142.8166  158.3131 C.ar    1  UNL1        0.1705
     14 H         141.3392  145.7954  156.6138 H       1  UNL1        0.1438
     15 H         140.4858  145.9395  155.1446 H       1  UNL1        0.1438
     16 C         140.7125  145.3293  159.7739 C.3     1  UNL1        0.2528
     17 O         140.9164  144.2666  158.7351 O.3     1  UNL1       -0.4658
     18 C         139.4508  140.2973  163.7198 C.ar    1  UNL1        0.1200
     19 N         139.8427  141.0069  164.9819 N.ar    1  UNL1       -0.2309
     20 C         139.8837  139.9955  166.0888 C.ar    1  UNL1        0.0997
     21 C         139.5170  138.6607  165.5109 C.ar    1  UNL1        0.0962
     22 N         139.2495  138.8473  164.0468 N.ar    1  UNL1       -0.3117
     23 C         138.8508  137.7725  163.0794 C.3     1  UNL1        0.1317
     24 C         140.2303  140.2705  167.5221 C.ar    1  UNL1        0.0193
     25 C         139.2356  139.9731  168.6047 C.ar    1  UNL1        0.0038
     26 C         139.5822  140.2481  170.0379 C.ar    1  UNL1        0.0296
     27 C         140.9237  140.8206  170.3886 C.ar    1  UNL1        0.1440
     28 F         141.2703  141.0956  171.8218 F       1  UNL1       -0.2042
     29 C         141.9184  141.1180  169.3060 C.ar    1  UNL1        0.0988
     30 C         141.5717  140.8430  167.8727 C.ar    1  UNL1        0.0077
     31 C         143.2598  141.6905  169.6566 C.3     1  UNL1        0.4207
     32 F         144.6011  142.2629  170.0073 F       1  UNL1       -0.1658
     33 F         143.5944  140.4410  170.4161 F       1  UNL1       -0.1658
     34 F         142.9251  142.9399  168.8971 F       1  UNL1       -0.1658
@<TRIPOS>BOND
     1    16    17    1
     2    17     7    1
     3     7     8   ar
     4     8     9    1
     5     8    10   ar
     6    10    11   ar
     7    11    12   ar
     8    12    13   ar
     9    13     1    1
    10     1     2    1
    11     2     3    1
    12     3     4    1
    13     4    18    1
    14    18    19   ar
    15    19    20   ar
    16    20    24    1
    17    24    25   ar
    18    25    26   ar
    19    26    27   ar
    20    27    28    1
    21    27    29   ar
    22    29    31    1
    23    31    32    1
    24    31    33    1
    25    31    34    1
    26    29    30   ar
    27    20    21   ar
    28    21    22   ar
    29    22    23    1
    30     4     5    1
    31     5     6    1
    32    13     7   ar
    33     6     1    1
    34    22    18   ar
    35    30    24   ar
    36     9    14    1
    37     9    15    1
@<TRIPOS>MOLECULE
*****
 34 37 0 0 0
SMALL
GASTEIGER

@<TRIPOS>ATOM
      1 N         139.6440  142.5802  159.5254 N.pl3   1  UNL1       -0.2907
      2 C         138.5458  142.5243  160.5455 C.3     1  UNL1        0.0927
      3 C         138.7655  141.8093  161.8456 C.3     1  UNL1        0.0290
      4 C         140.0836  141.1502  162.1257 C.3     1  UNL1        0.0603
      5 C         141.1818  141.2061  161.1056 C.3     1  UNL1        0.0290
      6 C         140.9620  141.9212  159.8054 C.3     1  UNL1        0.0927
      7 C         140.0625  144.6316  157.9869 C.ar    1  UNL1        0.2010
      8 C         139.8427  145.3466  156.6867 C.ar    1  UNL1        0.1643
      9 N         140.4810  146.6829  156.4484 N.pl3   1  UNL1       -0.3401
     10 N         138.9846  144.7252  155.6248 N.ar    1  UNL1       -0.2062
     11 C         138.3463  143.3889  155.8631 C.ar    1  UNL1        0.2014
     12 N         138.5662  142.6739  157.1632 N.ar    1  UNL1       -0.2058
     13 C         139.4242  143.2953  158.2251 C.ar    1  UNL1        0.1705
     14 H         141.0442  147.0908  157.1453 H       1  UNL1        0.1438
     15 H         140.3368  147.1522  155.5950 H       1  UNL1        0.1438
     16 C         140.2969  145.7619  160.3144 C.3     1  UNL1        0.2528
     17 O         140.9206  145.2529  159.0488 O.3     1  UNL1       -0.4658
     18 C         140.3033  140.4352  163.4259 C.ar    1  UNL1        0.1200
     19 N         140.6514  141.0760  164.7366 N.ar    1  UNL1       -0.2309
     20 C         140.7768  139.9907  165.7644 C.ar    1  UNL1        0.0997
     21 C         140.5061  138.6790  165.0889 C.ar    1  UNL1        0.0962
     22 N         140.2135  138.9538  163.6436 N.ar    1  UNL1       -0.3117
     23 C         139.8882  137.9273  162.5993 C.3     1  UNL1        0.1317
     24 C         141.1136  140.1833  167.2134 C.ar    1  UNL1        0.0193
     25 C         142.2158  139.3818  167.8401 C.ar    1  UNL1        0.0038
     26 C         142.5528  139.5742  169.2889 C.ar    1  UNL1        0.0296
     27 C         141.7874  140.5683  170.1113 C.ar    1  UNL1        0.1440
     28 F         142.1242  140.7608  171.5602 F       1  UNL1       -0.2042
     29 C         140.6852  141.3698  169.4846 C.ar    1  UNL1        0.0988
     30 C         140.3483  141.1773  168.0357 C.ar    1  UNL1        0.0077
     31 C         139.9198  142.3638  170.3069 C.3     1  UNL1        0.4207
     32 F         139.1545  143.3578  171.1292 F       1  UNL1       -0.1658
     33 F         141.1144  143.2709  170.3222 F       1  UNL1       -0.1658
     34 F         138.7253  141.4567  170.2917 F       1  UNL1       -0.1658
@<TRIPOS>BOND
     1    16    17    1
     2    17     7    1
     3     7     8   ar
     4     8     9    1
     5     8    10   ar
     6    10    11   ar
     7    11    12   ar
     8    12    13   ar
     9    13     1    1
    10     1     2    1
    11     2     3    1
    12     3     4    1
    13     4    18    1
    14    18    19   ar
    15    19    20   ar
    16    20    24    1
    17    24    25   ar
    18    25    26   ar
    19    26    27   ar
    20    27    28    1
    21    27    29   ar
    22    29    31    1
    23    31    32    1
    24    31    33    1
    25    31    34    1
    26    29    30   ar
    27    20    21   ar
    28    21    22   ar
    29    22    23    1
    30     4     5    1
    31     5     6    1
    32    13     7   ar
    33     6     1    1
    34    22    18   ar
    35    30    24   ar
    36     9    14    1
    37     9    15    1
