@<TRIPOS>MOLECULE
*****
 31 34 0 0 0
SMALL
GASTEIGER

@<TRIPOS>ATOM
      1 C         139.7506  140.4656  168.3414 C.ar    1  UNL1        0.2512
      2 N         138.6466  139.6575  168.9566 N.ar    1  UNL1       -0.1058
      3 N         137.9606  138.8989  167.8593 N.ar    1  UNL1       -0.0923
      4 C         138.6406  139.2382  166.5660 C.ar    1  UNL1        0.3086
      5 O         139.7468  140.2064  166.8640 O.2     1  UNL1       -0.4048
      6 C         142.5771  143.1891  170.5421 C.ar    1  UNL1        0.0503
      7 C         141.3144  143.7399  169.9488 C.ar    1  UNL1        0.0148
      8 C         140.3722  142.8320  169.2152 C.ar    1  UNL1        0.0060
      9 C         140.6928  141.3734  169.0750 C.ar    1  UNL1        0.0553
     10 C         141.9556  140.8226  169.6683 C.ar    1  UNL1        0.0060
     11 C         142.8977  141.7305  170.4019 C.ar    1  UNL1        0.0148
     12 O         145.4814  143.2585  169.7932 O.2     1  UNL1       -0.2748
     13 C         144.9714  144.1316  170.9012 C.2     1  UNL1        0.2256
     14 N         143.5194  144.0970  171.2756 N.am    1  UNL1       -0.2839
     15 H         143.1847  144.6700  172.0029 H       1  UNL1        0.1549
     16 C         145.9137  145.0395  171.6348 C.3     1  UNL1        0.0768
     17 C         145.6699  146.4822  171.9651 C.3     1  UNL1        0.0091
     18 C         146.8707  146.9984  172.7013 C.3     1  UNL1        0.0005
     19 C         147.8564  145.8746  172.8259 C.3     1  UNL1        0.0005
     20 C         147.2650  144.6640  172.1668 C.3     1  UNL1        0.0091
     21 N         138.2780  138.7032  165.2124 N.pl3   1  UNL1       -0.2871
     22 H         137.5127  139.0818  164.7222 H       1  UNL1        0.1512
     23 C         139.0814  137.5913  164.6056 C.3     1  UNL1        0.0925
     24 C         139.6616  137.7487  163.2313 C.3     1  UNL1        0.0386
     25 C         141.0754  137.3267  162.9613 C.3     1  UNL1        0.0738
     26 N         142.2125  138.0475  163.6226 N.3     1  UNL1       -0.2726
     27 C         143.3741  138.5274  162.8038 C.3     1  UNL1        0.0721
     28 C         144.5111  139.2481  163.4651 C.3     1  UNL1        0.0174
     29 C         144.4868  139.4890  164.9455 C.3     1  UNL1        0.0029
     30 C         143.3253  139.0091  165.7644 C.3     1  UNL1        0.0174
     31 C         142.1882  138.2884  165.1030 C.3     1  UNL1        0.0721
@<TRIPOS>BOND
     1    12    13    2
     2    13    14   am
     3    14     6    1
     4     6     7   ar
     5     7     8   ar
     6     8     9   ar
     7     9     1    1
     8     1     2   ar
     9     2     3   ar
    10     3     4   ar
    11     4    21    1
    12    21    23    1
    13    23    24    1
    14    24    25    1
    15    25    26    1
    16    26    27    1
    17    27    28    1
    18    28    29    1
    19    29    30    1
    20    30    31    1
    21     4     5   ar
    22     9    10   ar
    23    10    11   ar
    24    13    16    1
    25    16    17    1
    26    17    18    1
    27    18    19    1
    28    19    20    1
    29    11     6   ar
    30    20    16    1
    31     5     1   ar
    32    31    26    1
    33    14    15    1
    34    21    22    1
@<TRIPOS>MOLECULE
*****
 31 34 0 0 0
SMALL
GASTEIGER

@<TRIPOS>ATOM
      1 C         139.0425  139.8830  167.2828 C.ar    1  UNL1        0.2512
      2 N         138.2543  139.1230  168.3082 N.ar    1  UNL1       -0.1058
      3 N         138.4221  139.8151  169.6283 N.ar    1  UNL1       -0.0923
      4 C         139.3139  141.0029  169.4188 C.ar    1  UNL1        0.3086
      5 O         139.6973  141.0448  167.9692 O.2     1  UNL1       -0.4048
      6 C         139.3824  138.8573  162.9145 C.ar    1  UNL1        0.0503
      7 C         139.1848  140.2829  163.3369 C.ar    1  UNL1        0.0148
      8 C         139.0715  140.6248  164.7930 C.ar    1  UNL1        0.0060
      9 C         139.1558  139.5410  165.8266 C.ar    1  UNL1        0.0553
     10 C         139.3534  138.1154  165.4042 C.ar    1  UNL1        0.0060
     11 C         139.4668  137.7736  163.9481 C.ar    1  UNL1        0.0148
     12 O         141.8780  139.5504  161.4006 O.2     1  UNL1       -0.2748
     13 C         140.7435  138.8619  160.7014 C.2     1  UNL1        0.2256
     14 N         139.4958  138.5154  161.4583 N.am    1  UNL1       -0.2839
     15 H         138.7512  138.0635  160.9994 H       1  UNL1        0.1549
     16 C         140.8569  138.5200  159.2453 C.3     1  UNL1        0.0768
     17 C         139.7425  138.5563  158.2419 C.3     1  UNL1        0.0091
     18 C         140.3013  138.1405  156.9133 C.3     1  UNL1        0.0005
     19 C         141.7611  137.8472  157.0958 C.3     1  UNL1        0.0005
     20 C         142.1044  138.0818  158.5370 C.3     1  UNL1        0.0091
     21 N         139.7465  141.9777  170.4737 N.pl3   1  UNL1       -0.2871
     22 H         139.2194  142.7932  170.6362 H       1  UNL1        0.1512
     23 C         140.9820  141.7100  171.2810 C.3     1  UNL1        0.0925
     24 C         141.8228  140.5029  170.9874 C.3     1  UNL1        0.0386
     25 C         143.0542  140.6345  170.1411 C.3     1  UNL1        0.0738
     26 N         142.9342  140.6996  168.6474 N.3     1  UNL1       -0.2726
     27 C         142.9208  142.0293  167.9533 C.3     1  UNL1        0.0721
     28 C         142.8008  142.0944  166.4596 C.3     1  UNL1        0.0174
     29 C         142.6942  140.8298  165.6599 C.3     1  UNL1        0.0029
     30 C         142.7076  139.5002  166.3539 C.3     1  UNL1        0.0174
     31 C         142.8276  139.4350  167.8477 C.3     1  UNL1        0.0721
@<TRIPOS>BOND
     1    12    13    2
     2    13    14   am
     3    14     6    1
     4     6     7   ar
     5     7     8   ar
     6     8     9   ar
     7     9     1    1
     8     1     2   ar
     9     2     3   ar
    10     3     4   ar
    11     4    21    1
    12    21    23    1
    13    23    24    1
    14    24    25    1
    15    25    26    1
    16    26    27    1
    17    27    28    1
    18    28    29    1
    19    29    30    1
    20    30    31    1
    21     4     5   ar
    22     9    10   ar
    23    10    11   ar
    24    13    16    1
    25    16    17    1
    26    17    18    1
    27    18    19    1
    28    19    20    1
    29    11     6   ar
    30    20    16    1
    31     5     1   ar
    32    31    26    1
    33    14    15    1
    34    21    22    1
@<TRIPOS>MOLECULE
*****
 31 34 0 0 0
SMALL
GASTEIGER

@<TRIPOS>ATOM
      1 C         141.4761  142.0717  165.7156 C.ar    1  UNL1        0.2512
      2 N         142.8111  142.7533  165.7727 N.ar    1  UNL1       -0.1058
      3 N         143.1885  143.1514  164.3766 N.ar    1  UNL1       -0.0923
      4 C         142.0867  142.7157  163.4566 C.ar    1  UNL1        0.3086
      5 O         141.0284  142.0485  164.2842 O.2     1  UNL1       -0.4048
      6 C         139.2120  140.3916  169.2228 C.ar    1  UNL1        0.0503
      7 C         139.9803  141.6714  169.3697 C.ar    1  UNL1        0.0148
      8 C         140.7350  142.2314  168.2006 C.ar    1  UNL1        0.0060
      9 C         140.7214  141.5116  166.8847 C.ar    1  UNL1        0.0553
     10 C         139.9531  140.2317  166.7379 C.ar    1  UNL1        0.0060
     11 C         139.1984  139.6717  167.9069 C.ar    1  UNL1        0.0148
     12 O         136.9594  138.4627  168.7693 O.2     1  UNL1       -0.2748
     13 C         137.3310  138.8671  170.1652 C.2     1  UNL1        0.2256
     14 N         138.4572  139.8315  170.3920 N.am    1  UNL1       -0.2839
     15 H         138.7011  140.0969  171.3081 H       1  UNL1        0.1549
     16 C         136.5762  138.3070  171.3343 C.3     1  UNL1        0.0768
     17 C         135.2961  138.8485  171.8984 C.3     1  UNL1        0.0091
     18 C         134.8978  137.9833  173.0573 C.3     1  UNL1        0.0005
     19 C         135.9318  136.9072  173.2093 C.3     1  UNL1        0.0005
     20 C         136.9690  137.1073  172.1444 C.3     1  UNL1        0.0091
     21 N         142.0497  142.9128  161.9701 N.pl3   1  UNL1       -0.2871
     22 H         141.9254  142.1392  161.3739 H       1  UNL1        0.1512
     23 C         142.2021  144.2884  161.3919 C.3     1  UNL1        0.0925
     24 C         141.0195  144.9810  160.7822 C.3     1  UNL1        0.0386
     25 C         139.9603  145.5729  161.6641 C.3     1  UNL1        0.0738
     26 N         139.2031  144.6974  162.6179 N.3     1  UNL1       -0.2726
     27 C         139.1999  145.0127  164.0844 C.3     1  UNL1        0.0721
     28 C         138.4427  144.1371  165.0382 C.3     1  UNL1        0.0174
     29 C         137.6886  142.9461  164.5257 C.3     1  UNL1        0.0029
     30 C         137.6916  142.6307  163.0592 C.3     1  UNL1        0.0174
     31 C         138.4489  143.5064  162.1053 C.3     1  UNL1        0.0721
@<TRIPOS>BOND
     1    12    13    2
     2    13    14   am
     3    14     6    1
     4     6     7   ar
     5     7     8   ar
     6     8     9   ar
     7     9     1    1
     8     1     2   ar
     9     2     3   ar
    10     3     4   ar
    11     4    21    1
    12    21    23    1
    13    23    24    1
    14    24    25    1
    15    25    26    1
    16    26    27    1
    17    27    28    1
    18    28    29    1
    19    29    30    1
    20    30    31    1
    21     4     5   ar
    22     9    10   ar
    23    10    11   ar
    24    13    16    1
    25    16    17    1
    26    17    18    1
    27    18    19    1
    28    19    20    1
    29    11     6   ar
    30    20    16    1
    31     5     1   ar
    32    31    26    1
    33    14    15    1
    34    21    22    1
@<TRIPOS>MOLECULE
*****
 31 34 0 0 0
SMALL
GASTEIGER

@<TRIPOS>ATOM
      1 C         141.4268  144.6095  160.2472 C.ar    1  UNL1        0.2512
      2 N         142.6024  144.0622  159.4933 N.ar    1  UNL1       -0.1058
      3 N         142.6264  144.7078  158.1396 N.ar    1  UNL1       -0.0923
      4 C         141.4655  145.6541  158.0568 C.ar    1  UNL1        0.3086
      5 O         140.7241  145.5934  159.3593 O.2     1  UNL1       -0.4048
      6 C         140.2198  143.4955  164.4367 C.ar    1  UNL1        0.0503
      7 C         140.4846  144.9304  164.0890 C.ar    1  UNL1        0.0148
      8 C         140.8869  145.3017  162.6925 C.ar    1  UNL1        0.0060
      9 C         141.0244  144.2381  161.6437 C.ar    1  UNL1        0.0553
     10 C         140.7596  142.8033  161.9914 C.ar    1  UNL1        0.0060
     11 C         140.3573  142.4320  163.3879 C.ar    1  UNL1        0.0148
     12 O         142.2768  142.4825  166.3712 O.2     1  UNL1       -0.2748
     13 C         140.8459  142.6177  166.8004 C.2     1  UNL1        0.2256
     14 N         139.8174  143.1241  165.8332 N.am    1  UNL1       -0.2839
     15 H         138.8783  143.2128  166.1150 H       1  UNL1        0.1549
     16 C         140.4436  142.2463  168.1970 C.3     1  UNL1        0.0768
     17 C         140.4930  143.1448  169.3971 C.3     1  UNL1        0.0091
     18 C         140.0011  142.3651  170.5804 C.3     1  UNL1        0.0005
     19 C         139.6478  140.9847  170.1115 C.3     1  UNL1        0.0005
     20 C         139.9212  140.9113  168.6385 C.3     1  UNL1        0.0091
     21 N         141.1087  146.5108  156.8783 N.pl3   1  UNL1       -0.2871
     22 H         140.8344  147.4464  157.0149 H       1  UNL1        0.1512
     23 C         141.1698  145.9420  155.4917 C.3     1  UNL1        0.0925
     24 C         140.2010  146.4091  154.4461 C.3     1  UNL1        0.0386
     25 C         140.4083  147.7312  153.7686 C.3     1  UNL1        0.0738
     26 N         139.9270  148.9925  154.4223 N.3     1  UNL1       -0.2726
     27 C         138.8224  148.9378  155.4357 C.3     1  UNL1        0.0721
     28 C         138.3411  150.1990  156.0894 C.3     1  UNL1        0.0174
     29 C         138.9644  151.5152  155.7299 C.3     1  UNL1        0.0029
     30 C         140.0690  151.5699  154.7165 C.3     1  UNL1        0.0174
     31 C         140.5503  150.3086  154.0628 C.3     1  UNL1        0.0721
@<TRIPOS>BOND
     1    12    13    2
     2    13    14   am
     3    14     6    1
     4     6     7   ar
     5     7     8   ar
     6     8     9   ar
     7     9     1    1
     8     1     2   ar
     9     2     3   ar
    10     3     4   ar
    11     4    21    1
    12    21    23    1
    13    23    24    1
    14    24    25    1
    15    25    26    1
    16    26    27    1
    17    27    28    1
    18    28    29    1
    19    29    30    1
    20    30    31    1
    21     4     5   ar
    22     9    10   ar
    23    10    11   ar
    24    13    16    1
    25    16    17    1
    26    17    18    1
    27    18    19    1
    28    19    20    1
    29    11     6   ar
    30    20    16    1
    31     5     1   ar
    32    31    26    1
    33    14    15    1
    34    21    22    1
@<TRIPOS>MOLECULE
*****
 31 34 0 0 0
SMALL
GASTEIGER

@<TRIPOS>ATOM
      1 C         143.1224  138.5815  159.6925 C.ar    1  UNL1        0.2512
      2 N         144.0377  139.4650  158.8976 N.ar    1  UNL1       -0.1058
      3 N         143.8776  139.1137  157.4481 N.ar    1  UNL1       -0.0923
      4 C         142.8635  138.0131  157.3472 C.ar    1  UNL1        0.3086
      5 O         142.3968  137.6842  158.7343 O.2     1  UNL1       -0.4048
      6 C         142.6388  138.6167  164.1663 C.ar    1  UNL1        0.0503
      7 C         141.6824  137.8356  163.3147 C.ar    1  UNL1        0.0148
      8 C         141.8437  137.8239  161.8234 C.ar    1  UNL1        0.0060
      9 C         142.9612  138.5932  161.1838 C.ar    1  UNL1        0.0553
     10 C         143.9176  139.3743  162.0354 C.ar    1  UNL1        0.0060
     11 C         143.7564  139.3860  163.5266 C.ar    1  UNL1        0.0148
     12 O         141.0468  140.7903  165.4859 O.2     1  UNL1       -0.2748
     13 C         141.6816  139.7152  166.3174 C.2     1  UNL1        0.2256
     14 N         142.4776  138.6285  165.6576 N.am    1  UNL1       -0.2839
     15 H         142.8942  137.9229  166.2033 H       1  UNL1        0.1549
     16 C         141.5204  139.7270  167.8087 C.3     1  UNL1        0.0768
     17 C         142.5743  139.3632  168.8122 C.3     1  UNL1        0.0091
     18 C         141.9823  139.5160  170.1820 C.3     1  UNL1        0.0005
     19 C         140.5626  139.9742  170.0250 C.3     1  UNL1        0.0005
     20 C         140.2772  140.1046  168.5582 C.3     1  UNL1        0.0091
     21 N         142.3978  137.3566  156.0814 N.pl3   1  UNL1       -0.2871
     22 H         141.4609  137.4509  155.7938 H       1  UNL1        0.1512
     23 C         143.3595  136.5566  155.2537 C.3     1  UNL1        0.0925
     24 C         143.2431  135.0619  155.2040 C.3     1  UNL1        0.0386
     25 C         142.6645  134.3155  156.3693 C.3     1  UNL1        0.0738
     26 N         143.3145  133.0512  156.8475 N.3     1  UNL1       -0.2726
     27 C         144.5854  133.1150  157.6416 C.3     1  UNL1        0.0721
     28 C         145.2354  131.8507  158.1199 C.3     1  UNL1        0.0174
     29 C         144.6145  130.5223  157.8040 C.3     1  UNL1        0.0029
     30 C         143.3436  130.4583  157.0099 C.3     1  UNL1        0.0174
     31 C         142.6936  131.7228  156.5316 C.3     1  UNL1        0.0721
@<TRIPOS>BOND
     1    12    13    2
     2    13    14   am
     3    14     6    1
     4     6     7   ar
     5     7     8   ar
     6     8     9   ar
     7     9     1    1
     8     1     2   ar
     9     2     3   ar
    10     3     4   ar
    11     4    21    1
    12    21    23    1
    13    23    24    1
    14    24    25    1
    15    25    26    1
    16    26    27    1
    17    27    28    1
    18    28    29    1
    19    29    30    1
    20    30    31    1
    21     4     5   ar
    22     9    10   ar
    23    10    11   ar
    24    13    16    1
    25    16    17    1
    26    17    18    1
    27    18    19    1
    28    19    20    1
    29    11     6   ar
    30    20    16    1
    31     5     1   ar
    32    31    26    1
    33    14    15    1
    34    21    22    1
@<TRIPOS>MOLECULE
*****
 31 34 0 0 0
SMALL
GASTEIGER

@<TRIPOS>ATOM
      1 C         138.5399  140.3090  165.8121 C.ar    1  UNL1        0.2512
      2 N         137.7722  139.1109  166.2867 N.ar    1  UNL1       -0.1058
      3 N         138.1812  138.8291  167.7020 N.ar    1  UNL1       -0.0923
      4 C         139.2017  139.8531  168.1023 C.ar    1  UNL1        0.3086
      5 O         139.4234  140.7677  166.9342 O.2     1  UNL1       -0.4048
      6 C         138.2445  142.1961  161.7376 C.ar    1  UNL1        0.0503
      7 C         138.6390  143.0273  162.9223 C.ar    1  UNL1        0.0148
      8 C         138.7375  142.3983  164.2804 C.ar    1  UNL1        0.0060
      9 C         138.4414  140.9381  164.4539 C.ar    1  UNL1        0.0553
     10 C         138.0469  140.1069  163.2693 C.ar    1  UNL1        0.0060
     11 C         137.9484  140.7359  161.9111 C.ar    1  UNL1        0.0148
     12 O         140.5614  142.0357  159.8387 O.2     1  UNL1       -0.2748
     13 C         139.3045  142.7449  159.4300 C.2     1  UNL1        0.2256
     14 N         138.1460  142.8251  160.3794 N.am    1  UNL1       -0.2839
     15 H         137.3210  143.2906  160.1111 H       1  UNL1        0.1549
     16 C         139.2060  143.3739  158.0717 C.3     1  UNL1        0.0768
     17 C         138.2675  142.9633  156.9760 C.3     1  UNL1        0.0091
     18 C         138.5102  143.8596  155.7978 C.3     1  UNL1        0.0005
     19 C         139.5986  144.8241  156.1656 C.3     1  UNL1        0.0005
     20 C         140.0286  144.5239  157.5709 C.3     1  UNL1        0.0091
     21 N         139.8812  139.9460  169.4363 N.pl3   1  UNL1       -0.2871
     22 H         139.3703  140.2240  170.2306 H       1  UNL1        0.1512
     23 C         141.3390  139.6154  169.5601 C.3     1  UNL1        0.0925
     24 C         142.3098  140.1066  168.5275 C.3     1  UNL1        0.0386
     25 C         142.8029  139.1764  167.4591 C.3     1  UNL1        0.0738
     26 N         142.4213  139.4091  166.0273 N.3     1  UNL1       -0.2726
     27 C         142.6053  140.7651  165.4129 C.3     1  UNL1        0.0721
     28 C         142.2237  140.9979  163.9812 C.3     1  UNL1        0.0174
     29 C         141.6581  139.8747  163.1636 C.3     1  UNL1        0.0029
     30 C         141.4741  138.5187  163.7779 C.3     1  UNL1        0.0174
     31 C         141.8557  138.2859  165.2098 C.3     1  UNL1        0.0721
@<TRIPOS>BOND
     1    12    13    2
     2    13    14   am
     3    14     6    1
     4     6     7   ar
     5     7     8   ar
     6     8     9   ar
     7     9     1    1
     8     1     2   ar
     9     2     3   ar
    10     3     4   ar
    11     4    21    1
    12    21    23    1
    13    23    24    1
    14    24    25    1
    15    25    26    1
    16    26    27    1
    17    27    28    1
    18    28    29    1
    19    29    30    1
    20    30    31    1
    21     4     5   ar
    22     9    10   ar
    23    10    11   ar
    24    13    16    1
    25    16    17    1
    26    17    18    1
    27    18    19    1
    28    19    20    1
    29    11     6   ar
    30    20    16    1
    31     5     1   ar
    32    31    26    1
    33    14    15    1
    34    21    22    1
@<TRIPOS>MOLECULE
*****
 31 34 0 0 0
SMALL
GASTEIGER

@<TRIPOS>ATOM
      1 C         141.1273  144.8158  160.6207 C.ar    1  UNL1        0.2512
      2 N         139.9108  145.4582  160.0227 N.ar    1  UNL1       -0.1058
      3 N         140.2451  145.8665  158.6186 N.ar    1  UNL1       -0.0923
      4 C         141.6683  145.4765  158.3489 C.ar    1  UNL1        0.3086
      5 O         142.2134  144.8271  159.5863 O.2     1  UNL1       -0.4048
      6 C         141.4596  143.1474  164.7868 C.ar    1  UNL1        0.0503
      7 C         140.3412  142.7069  163.8895 C.ar    1  UNL1        0.0148
      8 C         140.2305  143.2630  162.5008 C.ar    1  UNL1        0.0060
      9 C         141.2381  144.2596  162.0095 C.ar    1  UNL1        0.0553
     10 C         142.3564  144.7002  162.9068 C.ar    1  UNL1        0.0060
     11 C         142.4671  144.1441  164.2954 C.ar    1  UNL1        0.0148
     12 O         143.3837  140.9185  165.3611 O.2     1  UNL1       -0.2748
     13 C         142.5324  141.4769  166.4626 C.2     1  UNL1        0.2256
     14 N         141.5704  142.5913  166.1756 N.am    1  UNL1       -0.2839
     15 H         141.0116  142.9578  166.8986 H       1  UNL1        0.1549
     16 C         142.6432  140.9208  167.8514 C.3     1  UNL1        0.0768
     17 C         143.0819  141.6759  169.0710 C.3     1  UNL1        0.0091
     18 C         143.0446  140.7338  170.2377 C.3     1  UNL1        0.0005
     19 C         142.5829  139.3965  169.7391 C.3     1  UNL1        0.0005
     20 C         142.3348  139.5121  168.2643 C.3     1  UNL1        0.0091
     21 N         142.4151  145.6971  157.0668 N.pl3   1  UNL1       -0.2871
     22 H         143.2101  146.2776  157.0539 H       1  UNL1        0.1512
     23 C         141.9506  145.0333  155.8045 C.3     1  UNL1        0.0925
     24 C         141.2809  145.8429  154.7339 C.3     1  UNL1        0.0386
     25 C         139.8518  146.2677  154.8983 C.3     1  UNL1        0.0738
     26 N         139.5119  147.7231  155.0258 N.3     1  UNL1       -0.2726
     27 C         138.7858  148.2202  156.2406 C.3     1  UNL1        0.0721
     28 C         138.4460  149.6755  156.3681 C.3     1  UNL1        0.0174
     29 C         138.8322  150.6339  155.2808 C.3     1  UNL1        0.0029
     30 C         139.5582  150.1369  154.0660 C.3     1  UNL1        0.0174
     31 C         139.8981  148.6815  153.9385 C.3     1  UNL1        0.0721
@<TRIPOS>BOND
     1    12    13    2
     2    13    14   am
     3    14     6    1
     4     6     7   ar
     5     7     8   ar
     6     8     9   ar
     7     9     1    1
     8     1     2   ar
     9     2     3   ar
    10     3     4   ar
    11     4    21    1
    12    21    23    1
    13    23    24    1
    14    24    25    1
    15    25    26    1
    16    26    27    1
    17    27    28    1
    18    28    29    1
    19    29    30    1
    20    30    31    1
    21     4     5   ar
    22     9    10   ar
    23    10    11   ar
    24    13    16    1
    25    16    17    1
    26    17    18    1
    27    18    19    1
    28    19    20    1
    29    11     6   ar
    30    20    16    1
    31     5     1   ar
    32    31    26    1
    33    14    15    1
    34    21    22    1
@<TRIPOS>MOLECULE
*****
 31 34 0 0 0
SMALL
GASTEIGER

@<TRIPOS>ATOM
      1 C         139.8229  142.6591  161.0828 C.ar    1  UNL1        0.2512
      2 N         138.5772  143.4820  160.9373 N.ar    1  UNL1       -0.1058
      3 N         137.6228  143.0737  162.0201 N.ar    1  UNL1       -0.0923
      4 C         138.2787  141.9984  162.8348 C.ar    1  UNL1        0.3086
      5 O         139.6384  141.7422  162.2555 O.2     1  UNL1       -0.4048
      6 C         143.4726  142.8992  158.4613 C.ar    1  UNL1        0.0503
      7 C         142.1047  142.9168  157.8460 C.ar    1  UNL1        0.0148
      8 C         140.8882  142.8368  158.7198 C.ar    1  UNL1        0.0060
      9 C         141.0395  142.7392  160.2090 C.ar    1  UNL1        0.0553
     10 C         142.4074  142.7216  160.8243 C.ar    1  UNL1        0.0060
     11 C         143.6239  142.8016  159.9505 C.ar    1  UNL1        0.0148
     12 O         144.6472  140.3983  157.2927 O.2     1  UNL1       -0.2748
     13 C         145.2765  141.7288  157.0032 C.2     1  UNL1        0.2256
     14 N         144.6892  142.9793  157.5875 N.am    1  UNL1       -0.2839
     15 H         145.1022  143.8525  157.3975 H       1  UNL1        0.1549
     16 C         146.4931  141.8089  156.1293 C.3     1  UNL1        0.0768
     17 C         147.8273  142.3686  156.5249 C.3     1  UNL1        0.0091
     18 C         148.7479  142.2489  155.3466 C.3     1  UNL1        0.0005
     19 C         147.9825  141.6152  154.2229 C.3     1  UNL1        0.0005
     20 C         146.5890  141.3432  154.7067 C.3     1  UNL1        0.0091
     21 N         137.6800  141.3017  164.0206 N.pl3   1  UNL1       -0.2871
     22 H         136.7209  141.0796  164.0285 H       1  UNL1        0.1512
     23 C         138.5425  140.9434  165.1943 C.3     1  UNL1        0.0925
     24 C         139.4976  141.9527  165.7591 C.3     1  UNL1        0.0386
     25 C         140.9720  141.8013  165.5283 C.3     1  UNL1        0.0738
     26 N         141.7452  142.9048  164.8695 N.3     1  UNL1       -0.2726
     27 C         143.2341  142.7945  164.7244 C.3     1  UNL1        0.0721
     28 C         144.0074  143.8980  164.0656 C.3     1  UNL1        0.0174
     29 C         143.2918  145.1120  163.5517 C.3     1  UNL1        0.0029
     30 C         141.8029  145.2225  163.6968 C.3     1  UNL1        0.0174
     31 C         141.0297  144.1189  164.3557 C.3     1  UNL1        0.0721
@<TRIPOS>BOND
     1    12    13    2
     2    13    14   am
     3    14     6    1
     4     6     7   ar
     5     7     8   ar
     6     8     9   ar
     7     9     1    1
     8     1     2   ar
     9     2     3   ar
    10     3     4   ar
    11     4    21    1
    12    21    23    1
    13    23    24    1
    14    24    25    1
    15    25    26    1
    16    26    27    1
    17    27    28    1
    18    28    29    1
    19    29    30    1
    20    30    31    1
    21     4     5   ar
    22     9    10   ar
    23    10    11   ar
    24    13    16    1
    25    16    17    1
    26    17    18    1
    27    18    19    1
    28    19    20    1
    29    11     6   ar
    30    20    16    1
    31     5     1   ar
    32    31    26    1
    33    14    15    1
    34    21    22    1
@<TRIPOS>MOLECULE
*****
 31 34 0 0 0
SMALL
GASTEIGER

@<TRIPOS>ATOM
      1 C         139.5010  142.2962  161.3833 C.ar    1  UNL1        0.2512
      2 N         138.1587  142.9479  161.2300 N.ar    1  UNL1       -0.1058
      3 N         137.3090  142.5393  162.3966 N.ar    1  UNL1       -0.0923
      4 C         138.1263  141.6350  163.2710 C.ar    1  UNL1        0.3086
      5 O         139.4810  141.4848  162.6447 O.2     1  UNL1       -0.4048
      6 C         142.9776  142.7039  158.5554 C.ar    1  UNL1        0.0503
      7 C         141.5894  142.5245  158.0163 C.ar    1  UNL1        0.0148
      8 C         140.4306  142.3886  158.9589 C.ar    1  UNL1        0.0060
      9 C         140.6600  142.4321  160.4406 C.ar    1  UNL1        0.0553
     10 C         142.0482  142.6116  160.9797 C.ar    1  UNL1        0.0060
     11 C         143.2070  142.7475  160.0371 C.ar    1  UNL1        0.0148
     12 O         144.6006  140.2917  157.8158 O.2     1  UNL1       -0.2748
     13 C         144.9480  141.6337  157.2429 C.2     1  UNL1        0.2256
     14 N         144.1365  142.8399  157.6127 N.am    1  UNL1       -0.2839
     15 H         144.3645  143.7207  157.2367 H       1  UNL1        0.1549
     16 C         146.1069  141.7696  156.3003 C.3     1  UNL1        0.0768
     17 C         147.4290  142.4048  156.6144 C.3     1  UNL1        0.0091
     18 C         148.2864  142.3220  155.3863 C.3     1  UNL1        0.0005
     19 C         147.4941  141.6357  154.3133 C.3     1  UNL1        0.0005
     20 C         146.1471  141.2943  154.8782 C.3     1  UNL1        0.0091
     21 N         137.6691  140.9936  164.5475 N.pl3   1  UNL1       -0.2871
     22 H         136.7284  141.0703  164.8276 H       1  UNL1        0.1512
     23 C         138.6452  140.2353  165.3974 C.3     1  UNL1        0.0925
     24 C         138.3878  138.7960  165.7325 C.3     1  UNL1        0.0386
     25 C         139.0094  137.7105  164.9046 C.3     1  UNL1        0.0738
     26 N         139.5287  138.0186  163.5316 N.3     1  UNL1       -0.2726
     27 C         138.5978  137.9982  162.3555 C.3     1  UNL1        0.0721
     28 C         139.1171  138.3063  160.9825 C.3     1  UNL1        0.0174
     29 C         140.5673  138.6350  160.7854 C.3     1  UNL1        0.0029
     30 C         141.4982  138.6555  161.9614 C.3     1  UNL1        0.0174
     31 C         140.9789  138.3473  163.3345 C.3     1  UNL1        0.0721
@<TRIPOS>BOND
     1    12    13    2
     2    13    14   am
     3    14     6    1
     4     6     7   ar
     5     7     8   ar
     6     8     9   ar
     7     9     1    1
     8     1     2   ar
     9     2     3   ar
    10     3     4   ar
    11     4    21    1
    12    21    23    1
    13    23    24    1
    14    24    25    1
    15    25    26    1
    16    26    27    1
    17    27    28    1
    18    28    29    1
    19    29    30    1
    20    30    31    1
    21     4     5   ar
    22     9    10   ar
    23    10    11   ar
    24    13    16    1
    25    16    17    1
    26    17    18    1
    27    18    19    1
    28    19    20    1
    29    11     6   ar
    30    20    16    1
    31     5     1   ar
    32    31    26    1
    33    14    15    1
    34    21    22    1
