@<TRIPOS>MOLECULE
*****
 28 32 0 0 0
SMALL
GASTEIGER

@<TRIPOS>ATOM
      1 N         139.6190  139.1297  171.6204 N.pl3   1  UNL1       -0.3133
      2 C         140.4707  139.8886  170.6464 C.2     1  UNL1        0.2770
      3 N         140.2488  139.9795  169.1656 N.2     1  UNL1       -0.2202
      4 C         141.3347  140.8369  168.5860 C.3     1  UNL1        0.1582
      5 C         142.2276  141.2758  169.7086 C.3     1  UNL1        0.2351
      6 O         141.6936  140.6896  170.9820 O.2     1  UNL1       -0.4478
      7 C         140.3577  140.3212  167.5714 C.ar    1  UNL1        0.0362
      8 C         139.2165  139.4494  168.0047 C.ar    1  UNL1        0.0073
      9 C         138.2395  138.9336  166.9901 C.ar    1  UNL1        0.0345
     10 BR        137.0983  138.0619  167.4234 Br      1  UNL1       -0.0490
     11 C         138.4037  139.2896  165.5422 C.ar    1  UNL1        0.0098
     12 C         139.5449  140.1614  165.1090 C.ar    1  UNL1        0.0371
     13 C         140.5219  140.6771  166.1236 C.ar    1  UNL1        0.1362
     14 O         141.6631  141.5489  165.6904 O.3     1  UNL1       -0.4788
     15 C         142.6401  142.0646  166.7050 C.3     1  UNL1        0.1769
     16 C         142.4759  141.7087  168.1528 C.3     1  UNL1        0.1177
     17 C         142.2033  141.5648  167.8697 C.3     1  UNL1        0.1502
     18 O         142.4899  141.7160  168.1673 O.3     1  UNL1       -0.3532
     19 C         142.2033  141.5648  167.8697 C.3     1  UNL1        0.1502
     20 H         138.8320  138.6313  171.3020 H       1  UNL1        0.1466
     21 H         139.8471  139.1301  172.5781 H       1  UNL1        0.1466
     22 C         143.7813  142.9364  166.2716 C.3     1  UNL1        0.0701
     23 C         144.1619  143.0084  164.8226 C.ar    1  UNL1       -0.0186
     24 C         144.9541  141.8977  164.1991 C.ar    1  UNL1       -0.0041
     25 C         145.3347  141.9697  162.7499 C.ar    1  UNL1       -0.0003
     26 C         144.9231  143.1525  161.9243 C.ar    1  UNL1       -0.0000
     27 C         144.1309  144.2632  162.5478 C.ar    1  UNL1       -0.0003
     28 C         143.7503  144.1912  163.9969 C.ar    1  UNL1       -0.0041
@<TRIPOS>BOND
     1     1     2    1
     2     2     3    2
     3     3     4    1
     4     4     5    1
     5     5     6    1
     6     4     7    1
     7     7     8   ar
     8     8     9   ar
     9     9    10    1
    10     9    11   ar
    11    11    12   ar
    12    12    13   ar
    13    13    14    1
    14    14    15    1
    15    15    22    1
    16    22    23    1
    17    23    24   ar
    18    24    25   ar
    19    25    26   ar
    20    26    27   ar
    21    27    28   ar
    22    15    16    1
    23    16    17    1
    24    17    18    1
    25    18    19    1
    26     6     2    1
    27    13     7   ar
    28    28    23   ar
    29    19    16    1
    30    16     4    1
    31     1    20    1
    32     1    21    1
@<TRIPOS>MOLECULE
*****
 28 32 0 0 0
SMALL
GASTEIGER

@<TRIPOS>ATOM
      1 N         138.4247  140.0210  170.4101 N.pl3   1  UNL1       -0.3133
      2 C         138.4265  139.5483  168.9866 C.2     1  UNL1        0.2770
      3 N         139.4535  139.8862  167.9467 N.2     1  UNL1       -0.2202
      4 C         139.0634  139.2015  166.6703 C.3     1  UNL1        0.1582
      5 C         137.7953  138.4405  166.9213 C.3     1  UNL1        0.2351
      6 O         137.4017  138.6549  168.3529 O.2     1  UNL1       -0.4478
      7 C         140.3243  140.0077  166.5695 C.ar    1  UNL1        0.0362
      8 C         140.8384  140.7490  167.7679 C.ar    1  UNL1        0.0073
      9 C         142.0993  141.5552  167.6671 C.ar    1  UNL1        0.0345
     10 BR        142.6134  142.2965  168.8655 Br      1  UNL1       -0.0490
     11 C         142.8461  141.6200  166.3678 C.ar    1  UNL1        0.0098
     12 C         142.3320  140.8788  165.1694 C.ar    1  UNL1        0.0371
     13 C         141.0711  140.0726  165.2702 C.ar    1  UNL1        0.1362
     14 O         140.5570  139.3313  164.0719 O.3     1  UNL1       -0.4788
     15 C         139.2961  138.5251  164.1727 C.3     1  UNL1        0.1769
     16 C         138.5493  138.4602  165.4719 C.3     1  UNL1        0.1177
     17 C         138.9011  138.6851  165.4438 C.3     1  UNL1        0.1502
     18 O         138.5313  138.4487  165.4734 O.3     1  UNL1       -0.3532
     19 C         138.9011  138.6851  165.4438 C.3     1  UNL1        0.1502
     20 H         139.1448  140.6086  170.7346 H       1  UNL1        0.1466
     21 H         137.7033  139.7436  171.0199 H       1  UNL1        0.1466
     22 C         138.7820  137.7838  162.9742 C.3     1  UNL1        0.0701
     23 C         138.7548  138.4540  161.6326 C.ar    1  UNL1       -0.0186
     24 C         139.7785  138.0983  160.5956 C.ar    1  UNL1       -0.0041
     25 C         139.7512  138.7686  159.2539 C.ar    1  UNL1       -0.0003
     26 C         138.7002  139.7946  158.9493 C.ar    1  UNL1       -0.0000
     27 C         137.6765  140.1503  159.9864 C.ar    1  UNL1       -0.0003
     28 C         137.7037  139.4800  161.3280 C.ar    1  UNL1       -0.0041
@<TRIPOS>BOND
     1     1     2    1
     2     2     3    2
     3     3     4    1
     4     4     5    1
     5     5     6    1
     6     4     7    1
     7     7     8   ar
     8     8     9   ar
     9     9    10    1
    10     9    11   ar
    11    11    12   ar
    12    12    13   ar
    13    13    14    1
    14    14    15    1
    15    15    22    1
    16    22    23    1
    17    23    24   ar
    18    24    25   ar
    19    25    26   ar
    20    26    27   ar
    21    27    28   ar
    22    15    16    1
    23    16    17    1
    24    17    18    1
    25    18    19    1
    26     6     2    1
    27    13     7   ar
    28    28    23   ar
    29    19    16    1
    30    16     4    1
    31     1    20    1
    32     1    21    1
@<TRIPOS>MOLECULE
*****
 28 32 0 0 0
SMALL
GASTEIGER

@<TRIPOS>ATOM
      1 N         144.4270  138.6051  160.9773 N.pl3   1  UNL1       -0.3133
      2 C         144.0774  138.8405  162.4168 C.2     1  UNL1        0.2770
      3 N         142.6953  138.8401  162.9998 N.2     1  UNL1       -0.2202
      4 C         142.8121  139.1170  164.4695 C.3     1  UNL1        0.1582
      5 C         144.2664  139.2886  164.7947 C.3     1  UNL1        0.2351
      6 O         145.0484  139.1177  163.5260 O.2     1  UNL1       -0.4478
      7 C         141.4024  138.9218  163.9956 C.ar    1  UNL1        0.0362
      8 C         141.1303  138.6369  162.5482 C.ar    1  UNL1        0.0073
      9 C         139.7206  138.4417  162.0744 C.ar    1  UNL1        0.0345
     10 BR        139.4485  138.1569  160.6270 Br      1  UNL1       -0.0490
     11 C         138.5829  138.5313  163.0479 C.ar    1  UNL1        0.0098
     12 C         138.8550  138.8161  164.4952 C.ar    1  UNL1        0.0371
     13 C         140.2647  139.0114  164.9691 C.ar    1  UNL1        0.1362
     14 O         140.5368  139.2962  166.4164 O.3     1  UNL1       -0.4788
     15 C         141.9465  139.4914  166.8903 C.3     1  UNL1        0.1769
     16 C         143.0842  139.4018  165.9168 C.3     1  UNL1        0.1177
     17 C         142.6909  139.3474  165.7846 C.3     1  UNL1        0.1502
     18 O         143.1043  139.4046  165.9236 O.3     1  UNL1       -0.3532
     19 C         142.6909  139.3474  165.7846 C.3     1  UNL1        0.1502
     20 H         143.7152  138.4304  160.3201 H       1  UNL1        0.1466
     21 H         145.3684  138.6254  160.6897 H       1  UNL1        0.1466
     22 C         142.2186  139.7763  168.3377 C.3     1  UNL1        0.0701
     23 C         141.4981  140.8949  169.0302 C.ar    1  UNL1       -0.0186
     24 C         140.1376  140.6610  169.6170 C.ar    1  UNL1       -0.0041
     25 C         139.4171  141.7797  170.3096 C.ar    1  UNL1       -0.0003
     26 C         140.0572  143.1321  170.4154 C.ar    1  UNL1       -0.0000
     27 C         141.4177  143.3659  169.8287 C.ar    1  UNL1       -0.0003
     28 C         142.1382  142.2474  169.1361 C.ar    1  UNL1       -0.0041
@<TRIPOS>BOND
     1     1     2    1
     2     2     3    2
     3     3     4    1
     4     4     5    1
     5     5     6    1
     6     4     7    1
     7     7     8   ar
     8     8     9   ar
     9     9    10    1
    10     9    11   ar
    11    11    12   ar
    12    12    13   ar
    13    13    14    1
    14    14    15    1
    15    15    22    1
    16    22    23    1
    17    23    24   ar
    18    24    25   ar
    19    25    26   ar
    20    26    27   ar
    21    27    28   ar
    22    15    16    1
    23    16    17    1
    24    17    18    1
    25    18    19    1
    26     6     2    1
    27    13     7   ar
    28    28    23   ar
    29    19    16    1
    30    16     4    1
    31     1    20    1
    32     1    21    1
@<TRIPOS>MOLECULE
*****
 28 32 0 0 0
SMALL
GASTEIGER

@<TRIPOS>ATOM
      1 N         145.3232  142.7536  160.2848 N.pl3   1  UNL1       -0.3133
      2 C         144.9149  142.5563  161.7145 C.2     1  UNL1        0.2770
      3 N         143.6564  143.0679  162.3507 N.2     1  UNL1       -0.2202
      4 C         143.6570  142.6406  163.7886 C.3     1  UNL1        0.1582
      5 C         144.9158  141.8648  164.0410 C.3     1  UNL1        0.2351
      6 O         145.6932  141.8128  162.7592 O.2     1  UNL1       -0.4478
      7 C         142.4478  143.4327  163.3881 C.ar    1  UNL1        0.0362
      8 C         142.3089  143.9285  161.9792 C.ar    1  UNL1        0.0073
      9 C         141.0997  144.7206  161.5787 C.ar    1  UNL1        0.0345
     10 BR        140.9607  145.2164  160.1699 Br      1  UNL1       -0.0490
     11 C         140.0294  145.0169  162.5871 C.ar    1  UNL1        0.0098
     12 C         140.1684  144.5211  163.9959 C.ar    1  UNL1        0.0371
     13 C         141.3776  143.7290  164.3964 C.ar    1  UNL1        0.1362
     14 O         141.5166  143.2332  165.8053 O.3     1  UNL1       -0.4788
     15 C         142.7258  142.4411  166.2058 C.3     1  UNL1        0.1769
     16 C         143.7960  142.1448  165.1974 C.3     1  UNL1        0.1177
     17 C         143.4586  142.3658  165.0857 C.3     1  UNL1        0.1502
     18 O         143.8133  142.1335  165.2032 O.3     1  UNL1       -0.3532
     19 C         143.4586  142.3658  165.0857 C.3     1  UNL1        0.1502
     20 H         144.7417  143.2593  159.6721 H       1  UNL1        0.1466
     21 H         146.1726  142.3774  159.9591 H       1  UNL1        0.1466
     22 C         142.8647  141.9454  167.6147 C.3     1  UNL1        0.0701
     23 C         141.6451  141.7580  168.4675 C.ar    1  UNL1       -0.0186
     24 C         141.1858  142.8625  169.3725 C.ar    1  UNL1       -0.0041
     25 C         139.9661  142.6751  170.2254 C.ar    1  UNL1       -0.0003
     26 C         139.2058  141.3831  170.1732 C.ar    1  UNL1       -0.0000
     27 C         139.6651  140.2786  169.2683 C.ar    1  UNL1       -0.0003
     28 C         140.8848  140.4659  168.4154 C.ar    1  UNL1       -0.0041
@<TRIPOS>BOND
     1     1     2    1
     2     2     3    2
     3     3     4    1
     4     4     5    1
     5     5     6    1
     6     4     7    1
     7     7     8   ar
     8     8     9   ar
     9     9    10    1
    10     9    11   ar
    11    11    12   ar
    12    12    13   ar
    13    13    14    1
    14    14    15    1
    15    15    22    1
    16    22    23    1
    17    23    24   ar
    18    24    25   ar
    19    25    26   ar
    20    26    27   ar
    21    27    28   ar
    22    15    16    1
    23    16    17    1
    24    17    18    1
    25    18    19    1
    26     6     2    1
    27    13     7   ar
    28    28    23   ar
    29    19    16    1
    30    16     4    1
    31     1    20    1
    32     1    21    1
@<TRIPOS>MOLECULE
*****
 28 32 0 0 0
SMALL
GASTEIGER

@<TRIPOS>ATOM
      1 N         138.2919  137.6457  161.2706 N.pl3   1  UNL1       -0.3133
      2 C         138.5999  138.1020  162.6658 C.2     1  UNL1        0.2770
      3 N         138.7916  139.5230  163.1066 N.2     1  UNL1       -0.2202
      4 C         139.0805  139.5168  164.5786 C.3     1  UNL1        0.1582
      5 C         139.0674  138.0921  165.0475 C.3     1  UNL1        0.2351
      6 O         138.7704  137.2177  163.8653 O.2     1  UNL1       -0.4478
      7 C         139.0614  140.8861  163.9664 C.ar    1  UNL1        0.0362
      8 C         138.7853  141.0486  162.5009 C.ar    1  UNL1        0.0073
      9 C         138.7662  142.4179  161.8887 C.ar    1  UNL1        0.0345
     10 BR        138.4901  142.5805  160.4234 Br      1  UNL1       -0.0490
     11 C         139.0231  143.6246  162.7420 C.ar    1  UNL1        0.0098
     12 C         139.2992  143.4620  164.2073 C.ar    1  UNL1        0.0371
     13 C         139.3183  142.0927  164.8195 C.ar    1  UNL1        0.1362
     14 O         139.5943  141.9301  166.2849 O.3     1  UNL1       -0.4788
     15 C         139.6135  140.5609  166.8971 C.3     1  UNL1        0.1769
     16 C         139.3566  139.3542  166.0439 C.3     1  UNL1        0.1177
     17 C         139.3512  139.7363  165.8731 C.3     1  UNL1        0.1502
     18 O         139.3568  139.3347  166.0526 O.3     1  UNL1       -0.3532
     19 C         139.3512  139.7363  165.8731 C.3     1  UNL1        0.1502
     20 H         138.1983  138.3058  160.5462 H       1  UNL1        0.1466
     21 H         138.1834  136.6861  161.0793 H       1  UNL1        0.1466
     22 C         139.8895  140.3983  168.3625 C.3     1  UNL1        0.0701
     23 C         140.9165  141.2622  169.0326 C.ar    1  UNL1       -0.0186
     24 C         142.3208  140.7632  169.2027 C.ar    1  UNL1       -0.0041
     25 C         143.3478  141.6271  169.8728 C.ar    1  UNL1       -0.0003
     26 C         142.9704  142.9900  170.3728 C.ar    1  UNL1       -0.0000
     27 C         141.5661  143.4891  170.2027 C.ar    1  UNL1       -0.0003
     28 C         140.5392  142.6252  169.5326 C.ar    1  UNL1       -0.0041
@<TRIPOS>BOND
     1     1     2    1
     2     2     3    2
     3     3     4    1
     4     4     5    1
     5     5     6    1
     6     4     7    1
     7     7     8   ar
     8     8     9   ar
     9     9    10    1
    10     9    11   ar
    11    11    12   ar
    12    12    13   ar
    13    13    14    1
    14    14    15    1
    15    15    22    1
    16    22    23    1
    17    23    24   ar
    18    24    25   ar
    19    25    26   ar
    20    26    27   ar
    21    27    28   ar
    22    15    16    1
    23    16    17    1
    24    17    18    1
    25    18    19    1
    26     6     2    1
    27    13     7   ar
    28    28    23   ar
    29    19    16    1
    30    16     4    1
    31     1    20    1
    32     1    21    1
@<TRIPOS>MOLECULE
*****
 28 32 0 0 0
SMALL
GASTEIGER

@<TRIPOS>ATOM
      1 N         138.1054  142.8851  160.5173 N.pl3   1  UNL1       -0.3133
      2 C         138.1993  142.3102  161.8995 C.2     1  UNL1        0.2770
      3 N         138.9657  141.0824  162.2935 N.2     1  UNL1       -0.2202
      4 C         138.7834  140.8755  163.7680 C.3     1  UNL1        0.1582
      5 C         137.9044  141.9755  164.2852 C.3     1  UNL1        0.2351
      6 O         137.5434  142.8622  163.1303 O.2     1  UNL1       -0.4478
      7 C         139.6478  139.8417  163.1092 C.ar    1  UNL1        0.0362
      8 C         139.9195  139.9195  161.6360 C.ar    1  UNL1        0.0073
      9 C         140.7839  138.8857  160.9771 C.ar    1  UNL1        0.0345
     10 BR        141.0556  138.9635  159.5040 Br      1  UNL1       -0.0490
     11 C         141.3766  137.7741  161.7915 C.ar    1  UNL1        0.0098
     12 C         141.1049  137.6963  163.2646 C.ar    1  UNL1        0.0371
     13 C         140.2405  138.7301  163.9234 C.ar    1  UNL1        0.1362
     14 O         139.9688  138.6523  165.3965 O.3     1  UNL1       -0.4788
     15 C         139.1044  139.6862  166.0554 C.3     1  UNL1        0.1769
     16 C         138.5117  140.7977  165.2411 C.3     1  UNL1        0.1177
     17 C         138.7529  140.5093  165.0573 C.3     1  UNL1        0.1502
     18 O         138.4994  140.8125  165.2505 O.3     1  UNL1       -0.3532
     19 C         138.7529  140.5093  165.0573 C.3     1  UNL1        0.1502
     20 H         138.5742  142.4485  159.7697 H       1  UNL1        0.1466
     21 H         137.5749  143.6989  160.3576 H       1  UNL1        0.1466
     22 C         138.8327  139.6083  167.5286 C.3     1  UNL1        0.0701
     23 C         139.8952  140.0074  168.5093 C.ar    1  UNL1       -0.0186
     24 C         139.5171  140.3965  169.9077 C.ar    1  UNL1       -0.0041
     25 C         140.5797  140.7956  170.8884 C.ar    1  UNL1       -0.0003
     26 C         142.0203  140.8055  170.4707 C.ar    1  UNL1       -0.0000
     27 C         142.3984  140.4163  169.0722 C.ar    1  UNL1       -0.0003
     28 C         141.3359  140.0173  168.0915 C.ar    1  UNL1       -0.0041
@<TRIPOS>BOND
     1     1     2    1
     2     2     3    2
     3     3     4    1
     4     4     5    1
     5     5     6    1
     6     4     7    1
     7     7     8   ar
     8     8     9   ar
     9     9    10    1
    10     9    11   ar
    11    11    12   ar
    12    12    13   ar
    13    13    14    1
    14    14    15    1
    15    15    22    1
    16    22    23    1
    17    23    24   ar
    18    24    25   ar
    19    25    26   ar
    20    26    27   ar
    21    27    28   ar
    22    15    16    1
    23    16    17    1
    24    17    18    1
    25    18    19    1
    26     6     2    1
    27    13     7   ar
    28    28    23   ar
    29    19    16    1
    30    16     4    1
    31     1    20    1
    32     1    21    1
@<TRIPOS>MOLECULE
*****
 28 32 0 0 0
SMALL
GASTEIGER

@<TRIPOS>ATOM
      1 N         139.0769  146.1079  161.6529 N.pl3   1  UNL1       -0.3133
      2 C         138.9588  144.9574  162.6080 C.2     1  UNL1        0.2770
      3 N         138.7263  143.5229  162.2359 N.2     1  UNL1       -0.2202
      4 C         138.6763  142.7182  163.5008 C.3     1  UNL1        0.1582
      5 C         138.8779  143.6552  164.6546 C.3     1  UNL1        0.2351
      6 O         139.0526  145.0392  164.1028 O.2     1  UNL1       -0.4478
      7 C         138.4880  141.9065  162.2535 C.ar    1  UNL1        0.0362
      8 C         138.5139  142.5765  160.9117 C.ar    1  UNL1        0.0073
      9 C         138.3257  141.7648  159.6644 C.ar    1  UNL1        0.0345
     10 BR        138.3515  142.4347  158.3226 Br      1  UNL1       -0.0490
     11 C         138.1116  140.2831  159.7589 C.ar    1  UNL1        0.0098
     12 C         138.0857  139.6132  161.1007 C.ar    1  UNL1        0.0371
     13 C         138.2740  140.4249  162.3480 C.ar    1  UNL1        0.1362
     14 O         138.2481  139.7550  163.6898 O.3     1  UNL1       -0.4788
     15 C         138.4364  140.5666  164.9371 C.3     1  UNL1        0.1769
     16 C         138.6504  142.0482  164.8426 C.3     1  UNL1        0.1177
     17 C         138.5979  141.8218  164.4946 C.3     1  UNL1        0.1502
     18 O         138.6531  142.0598  164.8604 O.3     1  UNL1       -0.3532
     19 C         138.5979  141.8218  164.4946 C.3     1  UNL1        0.1502
     20 H         139.0010  145.9528  160.6837 H       1  UNL1        0.1466
     21 H         139.2303  147.0181  161.9953 H       1  UNL1        0.1466
     22 C         138.4105  139.8966  166.2790 C.3     1  UNL1        0.0701
     23 C         139.6586  139.8303  167.1084 C.ar    1  UNL1       -0.0186
     24 C         140.9821  139.5697  166.4523 C.ar    1  UNL1       -0.0041
     25 C         142.2302  139.5035  167.2818 C.ar    1  UNL1       -0.0003
     26 C         142.1547  139.6978  168.7672 C.ar    1  UNL1       -0.0000
     27 C         140.8312  139.9583  169.4232 C.ar    1  UNL1       -0.0003
     28 C         139.5832  140.0246  168.5939 C.ar    1  UNL1       -0.0041
@<TRIPOS>BOND
     1     1     2    1
     2     2     3    2
     3     3     4    1
     4     4     5    1
     5     5     6    1
     6     4     7    1
     7     7     8   ar
     8     8     9   ar
     9     9    10    1
    10     9    11   ar
    11    11    12   ar
    12    12    13   ar
    13    13    14    1
    14    14    15    1
    15    15    22    1
    16    22    23    1
    17    23    24   ar
    18    24    25   ar
    19    25    26   ar
    20    26    27   ar
    21    27    28   ar
    22    15    16    1
    23    16    17    1
    24    17    18    1
    25    18    19    1
    26     6     2    1
    27    13     7   ar
    28    28    23   ar
    29    19    16    1
    30    16     4    1
    31     1    20    1
    32     1    21    1
@<TRIPOS>MOLECULE
*****
 28 32 0 0 0
SMALL
GASTEIGER

@<TRIPOS>ATOM
      1 N         142.1999  144.7383  160.2357 N.pl3   1  UNL1       -0.3133
      2 C         141.9010  144.4200  161.6707 C.2     1  UNL1        0.2770
      3 N         140.8378  143.4832  162.1630 N.2     1  UNL1       -0.2202
      4 C         140.8925  143.4668  163.6620 C.3     1  UNL1        0.1582
      5 C         141.9893  144.3935  164.0960 C.3     1  UNL1        0.2351
      6 O         142.6126  144.9825  162.8653 O.2     1  UNL1       -0.4478
      7 C         139.8329  142.5785  163.0804 C.ar    1  UNL1        0.0362
      8 C         139.6599  142.4924  161.5928 C.ar    1  UNL1        0.0073
      9 C         138.6003  141.6042  161.0112 C.ar    1  UNL1        0.0345
     10 BR        138.4273  141.5180  159.5238 Br      1  UNL1       -0.0490
     11 C         137.7138  140.8020  161.9171 C.ar    1  UNL1        0.0098
     12 C         137.8868  140.8881  163.4046 C.ar    1  UNL1        0.0371
     13 C         138.9464  141.7764  163.9862 C.ar    1  UNL1        0.1362
     14 O         139.1194  141.8625  165.4737 O.3     1  UNL1       -0.4788
     15 C         140.1790  142.7508  166.0553 C.3     1  UNL1        0.1769
     16 C         141.0655  143.5529  165.1495 C.3     1  UNL1        0.1177
     17 C         140.7699  143.3051  164.9872 C.3     1  UNL1        0.1502
     18 O         141.0806  143.5656  165.1578 O.3     1  UNL1       -0.3532
     19 C         140.7699  143.3051  164.9872 C.3     1  UNL1        0.1502
     20 H         141.6745  144.3160  159.5181 H       1  UNL1        0.1466
     21 H         142.9214  145.3694  160.0114 H       1  UNL1        0.1466
     22 C         140.3520  142.8369  167.5429 C.3     1  UNL1        0.0701
     23 C         140.8667  141.6537  168.3078 C.ar    1  UNL1       -0.0186
     24 C         142.1299  140.9715  167.8733 C.ar    1  UNL1       -0.0041
     25 C         142.6446  139.7882  168.6383 C.ar    1  UNL1       -0.0003
     26 C         141.8960  139.2873  169.8377 C.ar    1  UNL1       -0.0000
     27 C         140.6328  139.9696  170.2722 C.ar    1  UNL1       -0.0003
     28 C         140.1181  141.1527  169.5073 C.ar    1  UNL1       -0.0041
@<TRIPOS>BOND
     1     1     2    1
     2     2     3    2
     3     3     4    1
     4     4     5    1
     5     5     6    1
     6     4     7    1
     7     7     8   ar
     8     8     9   ar
     9     9    10    1
    10     9    11   ar
    11    11    12   ar
    12    12    13   ar
    13    13    14    1
    14    14    15    1
    15    15    22    1
    16    22    23    1
    17    23    24   ar
    18    24    25   ar
    19    25    26   ar
    20    26    27   ar
    21    27    28   ar
    22    15    16    1
    23    16    17    1
    24    17    18    1
    25    18    19    1
    26     6     2    1
    27    13     7   ar
    28    28    23   ar
    29    19    16    1
    30    16     4    1
    31     1    20    1
    32     1    21    1
@<TRIPOS>MOLECULE
*****
 28 32 0 0 0
SMALL
GASTEIGER

@<TRIPOS>ATOM
      1 N         139.9527  145.5532  160.1945 N.pl3   1  UNL1       -0.3133
      2 C         139.9983  145.0513  161.6072 C.2     1  UNL1        0.2770
      3 N         141.0021  144.0883  162.1688 N.2     1  UNL1       -0.2202
      4 C         140.6724  143.8660  163.6152 C.3     1  UNL1        0.1582
      5 C         139.4648  144.6915  163.9475 C.3     1  UNL1        0.2351
      6 O         139.0483  145.4241  162.7065 O.2     1  UNL1       -0.4478
      7 C         141.8685  143.0975  163.1370 C.ar    1  UNL1        0.0362
      8 C         142.3179  143.2203  161.7112 C.ar    1  UNL1        0.0073
      9 C         143.5141  142.4517  161.2330 C.ar    1  UNL1        0.0345
     10 BR        143.9635  142.5745  159.8073 Br      1  UNL1       -0.0490
     11 C         144.2608  141.5604  162.1807 C.ar    1  UNL1        0.0098
     12 C         143.8113  141.4376  163.6065 C.ar    1  UNL1        0.0371
     13 C         142.6152  142.2062  164.0847 C.ar    1  UNL1        0.1362
     14 O         142.1657  142.0834  165.5104 O.3     1  UNL1       -0.4788
     15 C         140.9696  142.8519  165.9886 C.3     1  UNL1        0.1769
     16 C         140.2229  143.7432  165.0410 C.3     1  UNL1        0.1177
     17 C         140.5566  143.5288  164.9076 C.3     1  UNL1        0.1502
     18 O         140.2058  143.7542  165.0478 O.3     1  UNL1       -0.3532
     19 C         140.5566  143.5288  164.9076 C.3     1  UNL1        0.1502
     20 H         140.6241  145.2487  159.5420 H       1  UNL1        0.1466
     21 H         139.2514  146.1871  159.9198 H       1  UNL1        0.1466
     22 C         140.5201  142.7291  167.4144 C.3     1  UNL1        0.0701
     23 C         141.2988  141.8811  168.3759 C.ar    1  UNL1       -0.0186
     24 C         140.7846  140.5280  168.7690 C.ar    1  UNL1       -0.0041
     25 C         141.5634  139.6799  169.7305 C.ar    1  UNL1       -0.0003
     26 C         142.8563  140.1851  170.2988 C.ar    1  UNL1       -0.0000
     27 C         143.3706  141.5382  169.9057 C.ar    1  UNL1       -0.0003
     28 C         142.5919  142.3862  168.9442 C.ar    1  UNL1       -0.0041
@<TRIPOS>BOND
     1     1     2    1
     2     2     3    2
     3     3     4    1
     4     4     5    1
     5     5     6    1
     6     4     7    1
     7     7     8   ar
     8     8     9   ar
     9     9    10    1
    10     9    11   ar
    11    11    12   ar
    12    12    13   ar
    13    13    14    1
    14    14    15    1
    15    15    22    1
    16    22    23    1
    17    23    24   ar
    18    24    25   ar
    19    25    26   ar
    20    26    27   ar
    21    27    28   ar
    22    15    16    1
    23    16    17    1
    24    17    18    1
    25    18    19    1
    26     6     2    1
    27    13     7   ar
    28    28    23   ar
    29    19    16    1
    30    16     4    1
    31     1    20    1
    32     1    21    1
