@<TRIPOS>MOLECULE
*****
 36 40 0 0 0
SMALL
GASTEIGER

@<TRIPOS>ATOM
      1 N         140.6407  143.1291  163.2541 N.ar    1  UNL1       -0.3150
      2 C         141.2910  143.4704  164.5620 C.ar    1  UNL1        0.0770
      3 C         140.8149  142.4847  165.5875 C.ar    1  UNL1        0.0229
      4 C         139.8703  141.5341  164.9134 C.ar    1  UNL1        0.0668
      5 C         139.0944  140.3575  165.4265 C.ar    1  UNL1        0.1300
      6 N         139.2021  139.9592  166.8686 N.pl3   1  UNL1       -0.3425
      7 N         138.2108  139.5790  164.4974 N.ar    1  UNL1       -0.2094
      8 C         138.1031  139.9773  163.0552 C.ar    1  UNL1        0.2014
      9 N         138.8791  141.1540  162.5422 N.ar    1  UNL1       -0.2065
     10 C         139.7627  141.9324  163.4713 C.ar    1  UNL1        0.1482
     11 H         139.7820  140.4701  167.4784 H       1  UNL1        0.1437
     12 H         138.6928  139.1869  167.2053 H       1  UNL1        0.1437
     13 C         141.2134  142.4547  167.0333 C.ar    1  UNL1        0.0029
     14 C         142.4933  141.7893  167.4449 C.ar    1  UNL1        0.0010
     15 C         142.8917  141.7593  168.8907 C.ar    1  UNL1        0.0126
     16 C         142.0104  142.3947  169.9249 C.ar    1  UNL1        0.0705
     17 CL        142.4089  142.3647  171.3707 Cl      1  UNL1       -0.0810
     18 C         140.7306  143.0600  169.5133 C.ar    1  UNL1        0.0522
     19 N         139.8493  143.6953  170.5475 N.pl3   1  UNL1       -0.3563
     20 C         140.3321  143.0900  168.0675 C.ar    1  UNL1        0.0150
     21 H         140.1108  143.6757  171.4964 H       1  UNL1        0.1424
     22 H         139.0093  144.1320  170.2774 H       1  UNL1        0.1424
     23 C         141.2216  145.3119  159.3620 C.3     1  UNL1        0.0600
     24 C         142.0029  144.0632  159.6455 C.3     1  UNL1        0.0200
     25 C         141.8092  143.3356  160.9428 C.3     1  UNL1        0.0225
     26 C         140.8343  143.8566  161.9567 C.3     1  UNL1        0.0699
     27 C         140.0531  145.1054  161.6733 C.3     1  UNL1        0.0225
     28 C         140.2467  145.8330  160.3759 C.3     1  UNL1        0.0200
     29 C         140.9063  144.2897  161.2601 C.3     1  UNL1        0.0225
     30 C         141.0814  144.9476  160.0870 C.3     1  UNL1        0.0200
     31 C         140.6012  145.6602  156.8633 C.2     1  UNL1        0.4017
     32 O         139.5935  144.5533  156.9592 O.2     1  UNL1       -0.2264
     33 N         141.4153  146.0395  158.0647 N.am    1  UNL1       -0.2738
     34 H         142.0767  146.7660  158.0017 H       1  UNL1        0.1526
     35 C         139.7593  147.3636  155.0915 C.3     1  UNL1        0.2573
     36 O         140.7950  146.3878  155.5659 O.3     1  UNL1       -0.4306
@<TRIPOS>BOND
     1    35    36    1
     2    36    31    1
     3    31    32    2
     4    31    33   am
     5    33    23    1
     6    23    24    1
     7    24    25    1
     8    25    26    1
     9    26     1    1
    10     1     2   ar
    11     2     3   ar
    12     3    13    1
    13    13    14   ar
    14    14    15   ar
    15    15    16   ar
    16    16    17    1
    17    16    18   ar
    18    18    19    1
    19    18    20   ar
    20     3     4   ar
    21     4     5   ar
    22     5     6    1
    23     5     7   ar
    24     7     8   ar
    25     8     9   ar
    26     9    10   ar
    27    26    27    1
    28    27    28    1
    29    26    29    1
    30    29    30    1
    31    28    23    1
    32    30    23    1
    33    10     1   ar
    34    20    13   ar
    35    10     4   ar
    36    33    34    1
    37    19    21    1
    38    19    22    1
    39     6    11    1
    40     6    12    1
@<TRIPOS>MOLECULE
*****
 36 40 0 0 0
SMALL
GASTEIGER

@<TRIPOS>ATOM
      1 N         142.4950  139.8491  163.3146 N.ar    1  UNL1       -0.3150
      2 C         141.8024  139.3428  164.5450 C.ar    1  UNL1        0.0770
      3 C         142.1389  140.2652  165.6790 C.ar    1  UNL1        0.0229
      4 C         143.0394  141.3416  165.1495 C.ar    1  UNL1        0.0668
      5 C         143.6874  142.5226  165.8091 C.ar    1  UNL1        0.1300
      6 N         143.4673  142.7798  167.2704 N.pl3   1  UNL1       -0.3425
      7 N         144.5556  143.4465  165.0074 N.ar    1  UNL1       -0.2094
      8 C         144.7757  143.1893  163.5461 C.ar    1  UNL1        0.2014
      9 N         144.1277  142.0083  162.8865 N.ar    1  UNL1       -0.2065
     10 C         143.2596  141.0844  163.6882 C.ar    1  UNL1        0.1482
     11 H         142.8975  142.1734  167.7966 H       1  UNL1        0.1437
     12 H         143.8927  143.5550  167.7033 H       1  UNL1        0.1437
     13 C         141.6590  140.1343  167.0942 C.ar    1  UNL1        0.0029
     14 C         140.2848  140.6063  167.4669 C.ar    1  UNL1        0.0010
     15 C         139.8049  140.4753  168.8820 C.ar    1  UNL1        0.0126
     16 C         140.6992  139.8724  169.9244 C.ar    1  UNL1        0.0705
     17 CL        140.2194  139.7415  171.3396 Cl      1  UNL1       -0.0810
     18 C         142.0734  139.4005  169.5517 C.ar    1  UNL1        0.0522
     19 N         142.9677  138.7976  170.5942 N.pl3   1  UNL1       -0.3563
     20 C         142.5532  139.5314  168.1366 C.ar    1  UNL1        0.0150
     21 H         142.6528  138.7116  171.5230 H       1  UNL1        0.1424
     22 H         143.8696  138.4878  170.3496 H       1  UNL1        0.1424
     23 C         142.3115  137.9888  159.2212 C.3     1  UNL1        0.0600
     24 C         143.2659  137.4525  160.2467 C.3     1  UNL1        0.0200
     25 C         143.3271  138.0727  161.6111 C.3     1  UNL1        0.0225
     26 C         142.4339  139.2290  161.9502 C.3     1  UNL1        0.0699
     27 C         141.4794  139.7653  160.9247 C.3     1  UNL1        0.0225
     28 C         141.4183  139.1452  159.5602 C.3     1  UNL1        0.0200
     29 C         142.3645  138.9222  161.1893 C.3     1  UNL1        0.0225
     30 C         142.3092  138.3614  159.9555 C.3     1  UNL1        0.0200
     31 C         143.0911  137.9205  156.7438 C.2     1  UNL1        0.4017
     32 O         143.9929  139.0924  156.9953 O.2     1  UNL1       -0.2264
     33 N         142.2504  137.3687  157.8568 N.am    1  UNL1       -0.2738
     34 H         141.6585  136.5995  157.6917 H       1  UNL1        0.1526
     35 C         143.5361  135.9044  155.1667 C.3     1  UNL1        0.2573
     36 O         143.0299  137.3003  155.3793 O.3     1  UNL1       -0.4306
@<TRIPOS>BOND
     1    35    36    1
     2    36    31    1
     3    31    32    2
     4    31    33   am
     5    33    23    1
     6    23    24    1
     7    24    25    1
     8    25    26    1
     9    26     1    1
    10     1     2   ar
    11     2     3   ar
    12     3    13    1
    13    13    14   ar
    14    14    15   ar
    15    15    16   ar
    16    16    17    1
    17    16    18   ar
    18    18    19    1
    19    18    20   ar
    20     3     4   ar
    21     4     5   ar
    22     5     6    1
    23     5     7   ar
    24     7     8   ar
    25     8     9   ar
    26     9    10   ar
    27    26    27    1
    28    27    28    1
    29    26    29    1
    30    29    30    1
    31    28    23    1
    32    30    23    1
    33    10     1   ar
    34    20    13   ar
    35    10     4   ar
    36    33    34    1
    37    19    21    1
    38    19    22    1
    39     6    11    1
    40     6    12    1
@<TRIPOS>MOLECULE
*****
 36 40 0 0 0
SMALL
GASTEIGER

@<TRIPOS>ATOM
      1 N         142.6462  142.7382  162.6036 N.ar    1  UNL1       -0.3150
      2 C         143.5184  141.9592  161.6641 C.ar    1  UNL1        0.0770
      3 C         143.2903  142.4838  160.2775 C.ar    1  UNL1        0.0229
      4 C         142.2772  143.5869  160.3599 C.ar    1  UNL1        0.0668
      5 C         141.6658  144.4684  159.3116 C.ar    1  UNL1        0.1300
      6 N         142.0638  144.3112  157.8740 N.pl3   1  UNL1       -0.3425
      7 N         140.6563  145.5073  159.7010 N.ar    1  UNL1       -0.2094
      8 C         140.2582  145.6645  161.1386 C.ar    1  UNL1        0.2014
      9 N         140.8696  144.7830  162.1869 N.ar    1  UNL1       -0.2065
     10 C         141.8791  143.7441  161.7975 C.ar    1  UNL1        0.1482
     11 H         142.7264  143.6293  157.6184 H       1  UNL1        0.1437
     12 H         141.6625  144.8898  157.1860 H       1  UNL1        0.1437
     13 C         143.9581  141.9916  159.0277 C.ar    1  UNL1        0.0029
     14 C         143.4262  140.7804  158.3203 C.ar    1  UNL1        0.0010
     15 C         144.0940  140.2882  157.0706 C.ar    1  UNL1        0.0126
     16 C         145.2936  141.0071  156.5282 C.ar    1  UNL1        0.0705
     17 CL        145.9614  140.5150  155.2785 Cl      1  UNL1       -0.0810
     18 C         145.8254  142.2182  157.2356 C.ar    1  UNL1        0.0522
     19 N         147.0250  142.9371  156.6933 N.pl3   1  UNL1       -0.3563
     20 C         145.1576  142.7104  158.4853 C.ar    1  UNL1        0.0150
     21 H         147.4632  142.6141  155.8730 H       1  UNL1        0.1424
     22 H         147.3740  143.7320  157.1575 H       1  UNL1        0.1424
     23 C         142.3779  142.1590  167.0581 C.3     1  UNL1        0.0600
     24 C         143.6300  142.7161  166.4483 C.3     1  UNL1        0.0200
     25 C         143.7194  142.9092  164.9634 C.3     1  UNL1        0.0225
     26 C         142.5568  142.5451  164.0884 C.3     1  UNL1        0.0699
     27 C         141.3047  141.9880  164.6983 C.3     1  UNL1        0.0225
     28 C         141.2153  141.7950  166.1831 C.3     1  UNL1        0.0200
     29 C         142.4609  142.4215  164.8968 C.3     1  UNL1        0.0225
     30 C         142.3801  142.2469  166.2394 C.3     1  UNL1        0.0200
     31 C         142.6194  140.6336  169.1473 C.2     1  UNL1        0.4017
     32 O         143.0396  139.4942  168.2668 O.2     1  UNL1       -0.2264
     33 N         142.2886  141.9660  168.5430 N.am    1  UNL1       -0.2738
     34 H         142.0128  142.7138  169.1209 H       1  UNL1        0.1526
     35 C         141.3743  141.0172  171.3951 C.3     1  UNL1        0.2573
     36 O         142.5299  140.4406  170.6322 O.3     1  UNL1       -0.4306
@<TRIPOS>BOND
     1    35    36    1
     2    36    31    1
     3    31    32    2
     4    31    33   am
     5    33    23    1
     6    23    24    1
     7    24    25    1
     8    25    26    1
     9    26     1    1
    10     1     2   ar
    11     2     3   ar
    12     3    13    1
    13    13    14   ar
    14    14    15   ar
    15    15    16   ar
    16    16    17    1
    17    16    18   ar
    18    18    19    1
    19    18    20   ar
    20     3     4   ar
    21     4     5   ar
    22     5     6    1
    23     5     7   ar
    24     7     8   ar
    25     8     9   ar
    26     9    10   ar
    27    26    27    1
    28    27    28    1
    29    26    29    1
    30    29    30    1
    31    28    23    1
    32    30    23    1
    33    10     1   ar
    34    20    13   ar
    35    10     4   ar
    36    33    34    1
    37    19    21    1
    38    19    22    1
    39     6    11    1
    40     6    12    1
@<TRIPOS>MOLECULE
*****
 36 40 0 0 0
SMALL
GASTEIGER

@<TRIPOS>ATOM
      1 N         140.6635  141.7291  162.3400 N.ar    1  UNL1       -0.3150
      2 C         141.2554  141.7841  163.7172 C.ar    1  UNL1        0.0770
      3 C         140.8299  140.5489  164.4542 C.ar    1  UNL1        0.0229
      4 C         139.9750  139.7305  163.5326 C.ar    1  UNL1        0.0668
      5 C         139.2770  138.4154  163.7144 C.ar    1  UNL1        0.1300
      6 N         139.3798  137.6860  165.0211 N.pl3   1  UNL1       -0.3425
      7 N         138.4760  137.8297  162.5895 N.ar    1  UNL1       -0.2094
      8 C         138.3732  138.5591  161.2828 C.ar    1  UNL1        0.2014
      9 N         139.0712  139.8742  161.1011 N.ar    1  UNL1       -0.2065
     10 C         139.8722  140.4599  162.2259 C.ar    1  UNL1        0.1482
     11 H         139.9055  138.0704  165.7594 H       1  UNL1        0.1437
     12 H         138.9216  136.8228  165.1404 H       1  UNL1        0.1437
     13 C         141.1952  140.1943  165.8652 C.ar    1  UNL1        0.0029
     14 C         142.4919  139.4966  166.1515 C.ar    1  UNL1        0.0010
     15 C         142.8571  139.1420  167.5625 C.ar    1  UNL1        0.0126
     16 C         141.9258  139.4851  168.6872 C.ar    1  UNL1        0.0705
     17 CL        142.2910  139.1305  170.0982 Cl      1  UNL1       -0.0810
     18 C         140.6292  140.1827  168.4008 C.ar    1  UNL1        0.0522
     19 N         139.6978  140.5258  169.5255 N.pl3   1  UNL1       -0.3563
     20 C         140.2639  140.5373  166.9899 C.ar    1  UNL1        0.0150
     21 H         139.9375  140.2931  170.4516 H       1  UNL1        0.1424
     22 H         138.8468  140.9837  169.3376 H       1  UNL1        0.1424
     23 C         141.1724  144.8276  159.1166 C.3     1  UNL1        0.0600
     24 C         140.2024  145.0625  160.2364 C.3     1  UNL1        0.0200
     25 C         140.0328  144.0297  161.3108 C.3     1  UNL1        0.0225
     26 C         140.8331  142.7619  161.2656 C.3     1  UNL1        0.0699
     27 C         141.8031  142.5269  160.1457 C.3     1  UNL1        0.0225
     28 C         141.9727  143.5598  159.0712 C.3     1  UNL1        0.0200
     29 C         140.9604  143.2986  160.6542 C.3     1  UNL1        0.0225
     30 C         141.1138  144.2325  159.6827 C.3     1  UNL1        0.0200
     31 C         140.4728  145.8213  156.8202 C.2     1  UNL1        0.4017
     32 O         139.4340  144.7493  156.6728 O.2     1  UNL1       -0.2264
     33 N         141.3420  145.8604  158.0421 N.am    1  UNL1       -0.2738
     34 H         142.0238  146.5640  158.1389 H       1  UNL1        0.1526
     35 C         139.4468  147.3542  154.9906 C.3     1  UNL1        0.2573
     36 O         140.6425  146.8542  155.7458 O.3     1  UNL1       -0.4306
@<TRIPOS>BOND
     1    35    36    1
     2    36    31    1
     3    31    32    2
     4    31    33   am
     5    33    23    1
     6    23    24    1
     7    24    25    1
     8    25    26    1
     9    26     1    1
    10     1     2   ar
    11     2     3   ar
    12     3    13    1
    13    13    14   ar
    14    14    15   ar
    15    15    16   ar
    16    16    17    1
    17    16    18   ar
    18    18    19    1
    19    18    20   ar
    20     3     4   ar
    21     4     5   ar
    22     5     6    1
    23     5     7   ar
    24     7     8   ar
    25     8     9   ar
    26     9    10   ar
    27    26    27    1
    28    27    28    1
    29    26    29    1
    30    29    30    1
    31    28    23    1
    32    30    23    1
    33    10     1   ar
    34    20    13   ar
    35    10     4   ar
    36    33    34    1
    37    19    21    1
    38    19    22    1
    39     6    11    1
    40     6    12    1
@<TRIPOS>MOLECULE
*****
 36 40 0 0 0
SMALL
GASTEIGER

@<TRIPOS>ATOM
      1 N         143.0477  138.7797  161.3536 N.ar    1  UNL1       -0.3150
      2 C         142.5345  137.6926  160.4565 C.ar    1  UNL1        0.0770
      3 C         142.6253  138.1788  159.0404 C.ar    1  UNL1        0.0229
      4 C         143.1946  139.5664  159.0623 C.ar    1  UNL1        0.0668
      5 C         143.5090  140.5396  157.9651 C.ar    1  UNL1        0.1300
      6 N         143.2480  140.1682  156.5354 N.pl3   1  UNL1       -0.3425
      7 N         144.0845  141.8843  158.2976 N.ar    1  UNL1       -0.2094
      8 C         144.3455  142.2557  159.7273 C.ar    1  UNL1        0.2014
      9 N         144.0311  141.2825  160.8244 N.ar    1  UNL1       -0.2065
     10 C         143.4556  139.9378  160.4919 C.ar    1  UNL1        0.1482
     11 H         142.8703  139.2856  156.3172 H       1  UNL1        0.1437
     12 H         143.4544  140.8070  155.8153 H       1  UNL1        0.1437
     13 C         142.2183  137.4120  157.8171 C.ar    1  UNL1        0.0029
     14 C         140.9074  137.7055  157.1496 C.ar    1  UNL1        0.0010
     15 C         140.5004  136.9388  155.9263 C.ar    1  UNL1        0.0126
     16 C         141.4042  135.8785  155.3705 C.ar    1  UNL1        0.0705
     17 CL        140.9971  135.1117  154.1472 Cl      1  UNL1       -0.0810
     18 C         142.7150  135.5849  156.0380 C.ar    1  UNL1        0.0522
     19 N         143.6188  134.5247  155.4822 N.pl3   1  UNL1       -0.3563
     20 C         143.1220  136.3517  157.2613 C.ar    1  UNL1        0.0150
     21 H         143.3516  134.0214  154.6794 H       1  UNL1        0.1424
     22 H         144.4791  134.3320  155.9203 H       1  UNL1        0.1424
     23 C         143.3161  138.5987  165.8420 C.3     1  UNL1        0.0600
     24 C         144.4785  139.1056  165.0409 C.3     1  UNL1        0.0200
     25 C         144.3890  139.1659  163.5448 C.3     1  UNL1        0.0225
     26 C         143.1372  138.7194  162.8497 C.3     1  UNL1        0.0699
     27 C         141.9746  138.2125  163.6508 C.3     1  UNL1        0.0225
     28 C         142.0641  138.1522  165.1469 C.3     1  UNL1        0.0200
     29 C         143.1392  138.6678  163.6714 C.3     1  UNL1        0.0225
     30 C         143.2202  138.6133  165.0243 C.3     1  UNL1        0.0200
     31 C         142.8160  139.6388  168.1697 C.2     1  UNL1        0.4017
     32 O         142.1370  140.7995  167.5051 O.2     1  UNL1       -0.2264
     33 N         143.4056  138.5384  167.3381 N.am    1  UNL1       -0.2738
     34 H         143.8512  137.7766  167.7742 H       1  UNL1        0.1526
     35 C         141.9375  140.3564  170.5070 C.3     1  UNL1        0.2573
     36 O         142.9056  139.5784  169.6658 O.3     1  UNL1       -0.4306
@<TRIPOS>BOND
     1    35    36    1
     2    36    31    1
     3    31    32    2
     4    31    33   am
     5    33    23    1
     6    23    24    1
     7    24    25    1
     8    25    26    1
     9    26     1    1
    10     1     2   ar
    11     2     3   ar
    12     3    13    1
    13    13    14   ar
    14    14    15   ar
    15    15    16   ar
    16    16    17    1
    17    16    18   ar
    18    18    19    1
    19    18    20   ar
    20     3     4   ar
    21     4     5   ar
    22     5     6    1
    23     5     7   ar
    24     7     8   ar
    25     8     9   ar
    26     9    10   ar
    27    26    27    1
    28    27    28    1
    29    26    29    1
    30    29    30    1
    31    28    23    1
    32    30    23    1
    33    10     1   ar
    34    20    13   ar
    35    10     4   ar
    36    33    34    1
    37    19    21    1
    38    19    22    1
    39     6    11    1
    40     6    12    1
@<TRIPOS>MOLECULE
*****
 36 40 0 0 0
SMALL
GASTEIGER

@<TRIPOS>ATOM
      1 N         141.3978  142.3763  163.2310 N.ar    1  UNL1       -0.3150
      2 C         140.9127  142.5631  164.6380 C.ar    1  UNL1        0.0770
      3 C         141.5574  141.5132  165.4937 C.ar    1  UNL1        0.0229
      4 C         142.4409  140.6776  164.6155 C.ar    1  UNL1        0.0668
      5 C         143.3225  139.5000  164.9085 C.ar    1  UNL1        0.1300
      6 N         143.4211  138.9665  166.3070 N.pl3   1  UNL1       -0.3425
      7 N         144.1054  138.8558  163.8031 N.ar    1  UNL1       -0.2094
      8 C         144.0068  139.3893  162.4047 C.ar    1  UNL1        0.2014
      9 N         143.1253  140.5669  162.1116 N.ar    1  UNL1       -0.2065
     10 C         142.3423  141.2111  163.2170 C.ar    1  UNL1        0.1482
     11 H         142.9073  139.3893  167.0325 H       1  UNL1        0.1437
     12 H         143.9997  138.1936  166.4993 H       1  UNL1        0.1437
     13 C         141.3543  141.3309  166.9687 C.ar    1  UNL1        0.0029
     14 C         140.1974  140.5192  167.4717 C.ar    1  UNL1        0.0010
     15 C         139.9942  140.3369  168.9467 C.ar    1  UNL1        0.0126
     16 C         140.9479  140.9661  169.9186 C.ar    1  UNL1        0.0705
     17 CL        140.7447  140.7838  171.3935 Cl      1  UNL1       -0.0810
     18 C         142.1047  141.7777  169.4155 C.ar    1  UNL1        0.0522
     19 N         143.0583  142.4070  170.3874 N.pl3   1  UNL1       -0.3563
     20 C         142.3078  141.9601  167.9405 C.ar    1  UNL1        0.0150
     21 H         142.9250  142.2873  171.3555 H       1  UNL1        0.1424
     22 H         143.8176  142.9397  170.0572 H       1  UNL1        0.1424
     23 C         140.2255  144.8735  159.6756 C.3     1  UNL1        0.0600
     24 C         141.0086  145.4875  160.7980 C.3     1  UNL1        0.0200
     25 C         141.3994  144.6551  161.9831 C.3     1  UNL1        0.0225
     26 C         141.0071  143.2087  162.0459 C.3     1  UNL1        0.0699
     27 C         140.2239  142.5947  160.9235 C.3     1  UNL1        0.0225
     28 C         139.8332  143.4271  159.7384 C.3     1  UNL1        0.0200
     29 C         140.7701  143.6247  161.3760 C.3     1  UNL1        0.0225
     30 C         140.4168  144.3774  160.3044 C.3     1  UNL1        0.0200
     31 C         140.8068  145.9147  157.3674 C.2     1  UNL1        0.4017
     32 O         142.1697  145.2911  157.4294 O.2     1  UNL1       -0.2264
     33 N         139.8348  145.7059  158.4905 N.am    1  UNL1       -0.2738
     34 H         138.9403  146.1151  158.4499 H       1  UNL1        0.1526
     35 C         138.9704  147.0548  155.9260 C.3     1  UNL1        0.2573
     36 O         140.4160  146.7471  156.1823 O.3     1  UNL1       -0.4306
@<TRIPOS>BOND
     1    35    36    1
     2    36    31    1
     3    31    32    2
     4    31    33   am
     5    33    23    1
     6    23    24    1
     7    24    25    1
     8    25    26    1
     9    26     1    1
    10     1     2   ar
    11     2     3   ar
    12     3    13    1
    13    13    14   ar
    14    14    15   ar
    15    15    16   ar
    16    16    17    1
    17    16    18   ar
    18    18    19    1
    19    18    20   ar
    20     3     4   ar
    21     4     5   ar
    22     5     6    1
    23     5     7   ar
    24     7     8   ar
    25     8     9   ar
    26     9    10   ar
    27    26    27    1
    28    27    28    1
    29    26    29    1
    30    29    30    1
    31    28    23    1
    32    30    23    1
    33    10     1   ar
    34    20    13   ar
    35    10     4   ar
    36    33    34    1
    37    19    21    1
    38    19    22    1
    39     6    11    1
    40     6    12    1
@<TRIPOS>MOLECULE
*****
 36 40 0 0 0
SMALL
GASTEIGER

@<TRIPOS>ATOM
      1 N         141.0850  142.3952  162.1084 N.ar    1  UNL1       -0.3150
      2 C         140.3366  142.4335  163.4078 C.ar    1  UNL1        0.0770
      3 C         140.9385  141.4058  164.3197 C.ar    1  UNL1        0.0229
      4 C         142.0588  140.7323  163.5840 C.ar    1  UNL1        0.0668
      5 C         143.0081  139.6413  163.9819 C.ar    1  UNL1        0.1300
      6 N         142.9175  139.0299  165.3486 N.pl3   1  UNL1       -0.3425
      7 N         144.0480  139.1617  163.0131 N.ar    1  UNL1       -0.2094
      8 C         144.1385  139.7732  161.6464 C.ar    1  UNL1        0.2014
      9 N         143.1892  140.8642  161.2484 N.ar    1  UNL1       -0.2065
     10 C         142.1493  141.3438  162.2172 C.ar    1  UNL1        0.1482
     11 H         142.2350  139.3447  165.9845 H       1  UNL1        0.1437
     12 H         143.5406  138.3138  165.6098 H       1  UNL1        0.1437
     13 C         140.4975  141.1045  165.7214 C.ar    1  UNL1        0.0029
     14 C         141.0918  141.8595  166.8734 C.ar    1  UNL1        0.0010
     15 C         140.6508  141.5582  168.2751 C.ar    1  UNL1        0.0126
     16 C         139.6155  140.5019  168.5249 C.ar    1  UNL1        0.0705
     17 CL        139.1745  140.2006  169.9266 Cl      1  UNL1       -0.0810
     18 C         139.0212  139.7470  167.3730 C.ar    1  UNL1        0.0522
     19 N         137.9859  138.6907  167.6228 N.pl3   1  UNL1       -0.3563
     20 C         139.4622  140.0483  165.9713 C.ar    1  UNL1        0.0150
     21 H         137.6964  138.4930  168.5428 H       1  UNL1        0.1424
     22 H         137.5958  138.1952  166.8668 H       1  UNL1        0.1424
     23 C         140.2787  144.9804  158.5144 C.3     1  UNL1        0.0600
     24 C         139.7119  143.5933  158.5829 C.3     1  UNL1        0.0200
     25 C         139.9807  142.7316  159.7809 C.3     1  UNL1        0.0225
     26 C         140.8162  143.2569  160.9104 C.3     1  UNL1        0.0699
     27 C         141.3830  144.6441  160.8419 C.3     1  UNL1        0.0225
     28 C         141.1143  145.5058  159.6439 C.3     1  UNL1        0.0200
     29 C         140.6962  143.7662  160.2746 C.3     1  UNL1        0.0225
     30 C         140.4532  144.5454  159.1913 C.3     1  UNL1        0.0200
     31 C         140.9587  145.8285  156.1546 C.2     1  UNL1        0.4017
     32 O         142.1762  144.9530  156.1908 O.2     1  UNL1       -0.2264
     33 N         140.0100  145.8422  157.3164 N.am    1  UNL1       -0.2738
     34 H         139.2109  146.4167  157.2926 H       1  UNL1        0.1526
     35 C         141.2258  146.2946  153.6127 C.3     1  UNL1        0.2573
     36 O         140.6898  146.6902  154.9566 O.3     1  UNL1       -0.4306
@<TRIPOS>BOND
     1    35    36    1
     2    36    31    1
     3    31    32    2
     4    31    33   am
     5    33    23    1
     6    23    24    1
     7    24    25    1
     8    25    26    1
     9    26     1    1
    10     1     2   ar
    11     2     3   ar
    12     3    13    1
    13    13    14   ar
    14    14    15   ar
    15    15    16   ar
    16    16    17    1
    17    16    18   ar
    18    18    19    1
    19    18    20   ar
    20     3     4   ar
    21     4     5   ar
    22     5     6    1
    23     5     7   ar
    24     7     8   ar
    25     8     9   ar
    26     9    10   ar
    27    26    27    1
    28    27    28    1
    29    26    29    1
    30    29    30    1
    31    28    23    1
    32    30    23    1
    33    10     1   ar
    34    20    13   ar
    35    10     4   ar
    36    33    34    1
    37    19    21    1
    38    19    22    1
    39     6    11    1
    40     6    12    1
@<TRIPOS>MOLECULE
*****
 36 40 0 0 0
SMALL
GASTEIGER

@<TRIPOS>ATOM
      1 N         142.0488  141.4086  162.9963 N.ar    1  UNL1       -0.3150
      2 C         142.3840  141.9291  164.3626 C.ar    1  UNL1        0.0770
      3 C         141.4762  141.2576  165.3500 C.ar    1  UNL1        0.0229
      4 C         140.5799  140.3221  164.5939 C.ar    1  UNL1        0.0668
      5 C         139.4873  139.3973  165.0421 C.ar    1  UNL1        0.1300
      6 N         139.1334  139.3040  166.4968 N.pl3   1  UNL1       -0.3425
      7 N         138.7486  138.5659  164.0357 N.ar    1  UNL1       -0.2094
      8 C         139.1025  138.6592  162.5810 C.ar    1  UNL1        0.2014
      9 N         140.1951  139.5840  162.1328 N.ar    1  UNL1       -0.2065
     10 C         140.9338  140.4154  163.1393 C.ar    1  UNL1        0.1482
     11 H         139.6182  139.8497  167.1574 H       1  UNL1        0.1437
     12 H         138.4162  138.6970  166.7910 H       1  UNL1        0.1437
     13 C         141.4663  141.4821  166.8331 C.ar    1  UNL1        0.0029
     14 C         140.6046  142.5591  167.4229 C.ar    1  UNL1        0.0010
     15 C         140.5947  142.7836  168.9059 C.ar    1  UNL1        0.0126
     16 C         141.4465  141.9312  169.7992 C.ar    1  UNL1        0.0705
     17 CL        141.4366  142.1558  171.2823 Cl      1  UNL1       -0.0810
     18 C         142.3081  140.8543  169.2094 C.ar    1  UNL1        0.0522
     19 N         143.1598  140.0019  170.1027 N.pl3   1  UNL1       -0.3563
     20 C         142.3180  140.6298  167.7264 C.ar    1  UNL1        0.0150
     21 H         143.1533  140.1493  171.0761 H       1  UNL1        0.1424
     22 H         143.7253  139.2951  169.7156 H       1  UNL1        0.1424
     23 C         144.0388  142.6149  159.1447 C.3     1  UNL1        0.0600
     24 C         142.5449  142.4992  159.2129 C.3     1  UNL1        0.0200
     25 C         141.8816  142.0971  160.4967 C.3     1  UNL1        0.0225
     26 C         142.7121  141.8107  161.7125 C.3     1  UNL1        0.0699
     27 C         144.2062  141.9264  161.6443 C.3     1  UNL1        0.0225
     28 C         144.8695  142.3285  160.3604 C.3     1  UNL1        0.0200
     29 C         143.1207  142.0277  161.0314 C.3     1  UNL1        0.0225
     30 C         143.7205  142.3913  159.8704 C.3     1  UNL1        0.0200
     31 C         145.2224  141.9669  156.9245 C.2     1  UNL1        0.4017
     32 O         145.0794  140.5148  157.2721 O.2     1  UNL1       -0.2264
     33 N         144.7022  143.0170  157.8608 N.am    1  UNL1       -0.2738
     34 H         144.7960  143.9701  157.6327 H       1  UNL1        0.1526
     35 C         147.3308  142.7715  155.6371 C.3     1  UNL1        0.2573
     36 O         145.8858  142.3691  155.6406 O.3     1  UNL1       -0.4306
@<TRIPOS>BOND
     1    35    36    1
     2    36    31    1
     3    31    32    2
     4    31    33   am
     5    33    23    1
     6    23    24    1
     7    24    25    1
     8    25    26    1
     9    26     1    1
    10     1     2   ar
    11     2     3   ar
    12     3    13    1
    13    13    14   ar
    14    14    15   ar
    15    15    16   ar
    16    16    17    1
    17    16    18   ar
    18    18    19    1
    19    18    20   ar
    20     3     4   ar
    21     4     5   ar
    22     5     6    1
    23     5     7   ar
    24     7     8   ar
    25     8     9   ar
    26     9    10   ar
    27    26    27    1
    28    27    28    1
    29    26    29    1
    30    29    30    1
    31    28    23    1
    32    30    23    1
    33    10     1   ar
    34    20    13   ar
    35    10     4   ar
    36    33    34    1
    37    19    21    1
    38    19    22    1
    39     6    11    1
    40     6    12    1
@<TRIPOS>MOLECULE
*****
 36 40 0 0 0
SMALL
GASTEIGER

@<TRIPOS>ATOM
      1 N         141.8782  139.3886  158.2224 N.ar    1  UNL1       -0.3150
      2 C         141.4230  137.9674  158.0709 C.ar    1  UNL1        0.0770
      3 C         142.3353  137.2905  157.0914 C.ar    1  UNL1        0.0229
      4 C         143.3543  138.2933  156.6376 C.ar    1  UNL1        0.0668
      5 C         144.5030  138.1932  155.6782 C.ar    1  UNL1        0.1300
      6 N         144.7855  136.8964  154.9792 N.pl3   1  UNL1       -0.3425
      7 N         145.3691  139.3898  155.4178 N.ar    1  UNL1       -0.2094
      8 C         145.0866  140.6865  156.1168 C.ar    1  UNL1        0.2014
      9 N         143.9380  140.7867  157.0762 N.ar    1  UNL1       -0.2065
     10 C         143.0718  139.5900  157.3366 C.ar    1  UNL1        0.1482
     11 H         144.2170  136.1110  155.1501 H       1  UNL1        0.1437
     12 H         145.5394  136.8307  154.3494 H       1  UNL1        0.1437
     13 C         142.2445  135.8616  156.6442 C.ar    1  UNL1        0.0029
     14 C         141.3471  135.4889  155.5014 C.ar    1  UNL1        0.0010
     15 C         141.2563  134.0600  155.0542 C.ar    1  UNL1        0.0126
     16 C         142.0629  133.0037  155.7498 C.ar    1  UNL1        0.0705
     17 CL        141.9721  131.5748  155.3026 Cl      1  UNL1       -0.0810
     18 C         142.9602  133.3764  156.8925 C.ar    1  UNL1        0.0522
     19 N         143.7668  132.3202  157.5881 N.pl3   1  UNL1       -0.3563
     20 C         143.0510  134.8053  157.3397 C.ar    1  UNL1        0.0150
     21 H         143.7072  131.3823  157.2946 H       1  UNL1        0.1424
     22 H         144.3557  132.5648  158.3381 H       1  UNL1        0.1424
     23 C         139.9937  142.5017  160.8697 C.3     1  UNL1        0.0600
     24 C         140.9256  141.4830  161.4561 C.3     1  UNL1        0.0200
     25 C         141.5537  140.4453  160.5736 C.3     1  UNL1        0.0225
     26 C         141.2501  140.4263  159.1049 C.3     1  UNL1        0.0699
     27 C         140.3181  141.4451  158.5185 C.3     1  UNL1        0.0225
     28 C         139.6900  142.4828  159.4009 C.3     1  UNL1        0.0200
     29 C         140.8819  141.0143  159.5484 C.3     1  UNL1        0.0225
     30 C         140.3139  141.9526  160.3463 C.3     1  UNL1        0.0200
     31 C         138.0599  143.2541  162.4331 C.2     1  UNL1        0.4017
     32 O         137.3823  141.9311  162.2316 O.2     1  UNL1       -0.2264
     33 N         139.3656  143.5394  161.7521 N.am    1  UNL1       -0.2738
     34 H         139.8103  144.4077  161.8844 H       1  UNL1        0.1526
     35 C         137.7772  144.3445  164.7743 C.3     1  UNL1        0.2573
     36 O         137.4318  144.2919  163.3155 O.3     1  UNL1       -0.4306
@<TRIPOS>BOND
     1    35    36    1
     2    36    31    1
     3    31    32    2
     4    31    33   am
     5    33    23    1
     6    23    24    1
     7    24    25    1
     8    25    26    1
     9    26     1    1
    10     1     2   ar
    11     2     3   ar
    12     3    13    1
    13    13    14   ar
    14    14    15   ar
    15    15    16   ar
    16    16    17    1
    17    16    18   ar
    18    18    19    1
    19    18    20   ar
    20     3     4   ar
    21     4     5   ar
    22     5     6    1
    23     5     7   ar
    24     7     8   ar
    25     8     9   ar
    26     9    10   ar
    27    26    27    1
    28    27    28    1
    29    26    29    1
    30    29    30    1
    31    28    23    1
    32    30    23    1
    33    10     1   ar
    34    20    13   ar
    35    10     4   ar
    36    33    34    1
    37    19    21    1
    38    19    22    1
    39     6    11    1
    40     6    12    1
