@<TRIPOS>MOLECULE
*****
 31 34 0 0 0
SMALL
GASTEIGER

@<TRIPOS>ATOM
      1 C         141.2964  139.3696  164.0479 C.ar    1  UNL1        0.2204
      2 N         140.6937  140.1165  165.2006 N.ar    1  UNL1       -0.2089
      3 C         141.2848  139.9821  166.5728 C.ar    1  UNL1        0.1402
      4 C         142.4786  139.1009  166.7921 C.ar    1  UNL1        0.1773
      5 C         143.0814  138.3540  165.6393 C.ar    1  UNL1        0.1402
      6 N         142.4903  138.4883  164.2673 N.ar    1  UNL1       -0.2089
      7 N         139.5233  139.7726  159.9317 N.pl3   1  UNL1       -0.2590
      8 C         140.6796  140.6372  160.3381 C.3     1  UNL1        0.1166
      9 C         141.2707  140.5029  161.7102 C.3     1  UNL1        0.1151
     10 N         140.7053  139.5039  162.6758 N.pl3   1  UNL1       -0.2764
     11 C         139.5490  138.6393  162.2694 C.3     1  UNL1        0.0955
     12 C         138.9837  137.6403  163.2350 C.3     1  UNL1        0.0233
     13 C         138.9580  138.7736  160.8973 C.3     1  UNL1        0.1149
     14 C         137.7120  140.7670  156.6459 C.ar    1  UNL1        0.2273
     15 N         138.3333  139.4602  156.2504 N.ar    1  UNL1       -0.1103
     16 N         139.0874  138.9287  157.4331 N.ar    1  UNL1       -0.0924
     17 C         138.9322  139.9069  158.5596 C.ar    1  UNL1        0.3118
     18 O         138.0822  141.0430  158.0731 O.2     1  UNL1       -0.4086
     19 C         136.9075  143.1336  155.9376 C.3     1  UNL1        0.0098
     20 C         136.8687  141.6437  155.7684 C.3     1  UNL1        0.0783
     21 C         135.9864  141.0305  154.7216 C.3     1  UNL1        0.0098
     22 O         143.0697  138.9665  168.1641 O.3     1  UNL1       -0.4675
     23 C         142.2588  139.3389  169.3698 C.3     1  UNL1        0.2329
     24 C         142.1290  140.7784  169.7710 C.ar    1  UNL1        0.0339
     25 C         143.3554  141.6294  169.9188 C.ar    1  UNL1        0.0207
     26 C         143.2255  143.0689  170.3199 C.ar    1  UNL1        0.0987
     27 N         141.8693  143.6574  170.5734 N.ar    1  UNL1       -0.2416
     28 C         140.6429  142.8065  170.4256 C.ar    1  UNL1        0.1089
     29 C         140.7727  141.3670  170.0244 C.ar    1  UNL1        0.0871
     30 C         139.5463  140.5160  169.8767 C.1     1  UNL1        0.1018
     31 N         138.3200  139.6651  169.7289 N.1     1  UNL1       -0.1908
@<TRIPOS>BOND
     1    19    20    1
     2    20    21    1
     3    20    14    1
     4    14    15   ar
     5    15    16   ar
     6    16    17   ar
     7    17     7    1
     8     7     8    1
     9     8     9    1
    10     9    10    1
    11    10     1    1
    12     1     2   ar
    13     2     3   ar
    14     3     4   ar
    15     4    22    1
    16    22    23    1
    17    23    24    1
    18    24    25   ar
    19    25    26   ar
    20    26    27   ar
    21    27    28   ar
    22    28    29   ar
    23    29    30    1
    24    30    31    3
    25     4     5   ar
    26     5     6   ar
    27    10    11    1
    28    11    12    1
    29    11    13    1
    30    17    18   ar
    31    18    14   ar
    32    13     7    1
    33     6     1   ar
    34    29    24   ar
@<TRIPOS>MOLECULE
*****
 31 34 0 0 0
SMALL
GASTEIGER

@<TRIPOS>ATOM
      1 C         142.0794  143.5782  162.7514 C.ar    1  UNL1        0.2204
      2 N         143.3719  144.0843  163.3198 N.ar    1  UNL1       -0.2089
      3 C         143.8048  143.6604  164.6921 C.ar    1  UNL1        0.1402
      4 C         142.9451  142.7304  165.4958 C.ar    1  UNL1        0.1773
      5 C         141.6525  142.2243  164.9273 C.ar    1  UNL1        0.1402
      6 N         141.2197  142.6482  163.5552 N.ar    1  UNL1       -0.2089
      7 N         140.7808  144.8497  158.6348 N.pl3   1  UNL1       -0.2590
      8 C         141.7505  143.7172  158.7989 C.3     1  UNL1        0.1166
      9 C         142.1833  143.2934  160.1711 C.3     1  UNL1        0.1151
     10 N         141.6465  144.0021  161.3792 N.pl3   1  UNL1       -0.2764
     11 C         140.6768  145.1346  161.2151 C.3     1  UNL1        0.0955
     12 C         140.1399  145.8433  162.4232 C.3     1  UNL1        0.0233
     13 C         140.2439  145.5585  159.8429 C.3     1  UNL1        0.1149
     14 C         140.0863  146.5540  155.2173 C.ar    1  UNL1        0.2273
     15 N         139.2772  145.2978  155.0845 N.ar    1  UNL1       -0.1103
     16 N         139.4390  144.5065  156.3485 N.ar    1  UNL1       -0.0924
     17 C         140.3479  145.2736  157.2625 C.ar    1  UNL1        0.3118
     18 O         140.7480  146.5390  156.5634 O.2     1  UNL1       -0.4086
     19 C         141.0057  147.3915  152.9363 C.3     1  UNL1        0.0098
     20 C         140.2116  147.6352  154.1852 C.3     1  UNL1        0.0783
     21 C         139.5427  148.9602  154.4021 C.3     1  UNL1        0.0098
     22 O         143.3779  142.3065  166.8680 O.3     1  UNL1       -0.4675
     23 C         142.5775  141.2893  167.6260 C.3     1  UNL1        0.2329
     24 C         141.7681  141.7080  168.8175 C.ar    1  UNL1        0.0339
     25 C         141.0601  143.0304  168.8160 C.ar    1  UNL1        0.0207
     26 C         140.2508  143.4491  170.0075 C.ar    1  UNL1        0.0987
     27 N         140.1495  142.5455  171.2004 N.ar    1  UNL1       -0.2416
     28 C         140.8575  141.2231  171.2020 C.ar    1  UNL1        0.1089
     29 C         141.6668  140.8044  170.0105 C.ar    1  UNL1        0.0871
     30 C         142.3749  139.4820  170.0120 C.1     1  UNL1        0.1018
     31 N         143.0829  138.1596  170.0134 N.1     1  UNL1       -0.1908
@<TRIPOS>BOND
     1    19    20    1
     2    20    21    1
     3    20    14    1
     4    14    15   ar
     5    15    16   ar
     6    16    17   ar
     7    17     7    1
     8     7     8    1
     9     8     9    1
    10     9    10    1
    11    10     1    1
    12     1     2   ar
    13     2     3   ar
    14     3     4   ar
    15     4    22    1
    16    22    23    1
    17    23    24    1
    18    24    25   ar
    19    25    26   ar
    20    26    27   ar
    21    27    28   ar
    22    28    29   ar
    23    29    30    1
    24    30    31    3
    25     4     5   ar
    26     5     6   ar
    27    10    11    1
    28    11    12    1
    29    11    13    1
    30    17    18   ar
    31    18    14   ar
    32    13     7    1
    33     6     1   ar
    34    29    24   ar
@<TRIPOS>MOLECULE
*****
 31 34 0 0 0
SMALL
GASTEIGER

@<TRIPOS>ATOM
      1 C         139.8298  142.7985  162.7442 C.ar    1  UNL1        0.2204
      2 N         141.0601  142.4398  163.5238 N.ar    1  UNL1       -0.2089
      3 C         140.9321  141.8106  164.8795 C.ar    1  UNL1        0.1402
      4 C         139.5737  141.5402  165.4556 C.ar    1  UNL1        0.1773
      5 C         138.3435  141.8989  164.6759 C.ar    1  UNL1        0.1402
      6 N         138.4715  142.5280  163.3203 N.ar    1  UNL1       -0.2089
      7 N         140.2139  144.6858  158.6773 N.pl3   1  UNL1       -0.2590
      8 C         139.9946  143.2071  158.8001 C.3     1  UNL1        0.1166
      9 C         139.8665  142.5780  160.1558 C.3     1  UNL1        0.1151
     10 N         139.9579  143.4276  161.3885 N.pl3   1  UNL1       -0.2764
     11 C         140.1773  144.9064  161.2657 C.3     1  UNL1        0.0955
     12 C         140.2686  145.7560  162.4985 C.3     1  UNL1        0.0233
     13 C         140.3053  145.5355  159.9100 C.3     1  UNL1        0.1149
     14 C         140.1683  146.8872  155.4808 C.ar    1  UNL1        0.2273
     15 N         140.9097  145.6790  154.9901 N.ar    1  UNL1       -0.1103
     16 N         141.0171  144.7074  156.1278 N.ar    1  UNL1       -0.0924
     17 C         140.3420  145.3150  157.3216 C.ar    1  UNL1        0.3118
     18 O         139.8174  146.6622  156.9217 O.2     1  UNL1       -0.4086
     19 C         138.9289  149.1578  155.2393 C.3     1  UNL1        0.0098
     20 C         139.8360  148.1063  154.6724 C.3     1  UNL1        0.0783
     21 C         140.4110  148.2739  153.2971 C.3     1  UNL1        0.0098
     22 O         139.4457  140.9110  166.8112 O.3     1  UNL1       -0.4675
     23 C         140.6651  140.3981  167.5181 C.3     1  UNL1        0.2329
     24 C         141.2271  141.1519  168.6870 C.ar    1  UNL1        0.0339
     25 C         142.5275  141.8868  168.5503 C.ar    1  UNL1        0.0207
     26 C         143.0895  142.6405  169.7190 C.ar    1  UNL1        0.0987
     27 N         142.3510  142.6593  171.0245 N.ar    1  UNL1       -0.2416
     28 C         141.0506  141.9244  171.1612 C.ar    1  UNL1        0.1089
     29 C         140.4886  141.1707  169.9924 C.ar    1  UNL1        0.0871
     30 C         139.1881  140.4357  170.1291 C.1     1  UNL1        0.1018
     31 N         137.8877  139.7008  170.2657 N.1     1  UNL1       -0.1908
@<TRIPOS>BOND
     1    19    20    1
     2    20    21    1
     3    20    14    1
     4    14    15   ar
     5    15    16   ar
     6    16    17   ar
     7    17     7    1
     8     7     8    1
     9     8     9    1
    10     9    10    1
    11    10     1    1
    12     1     2   ar
    13     2     3   ar
    14     3     4   ar
    15     4    22    1
    16    22    23    1
    17    23    24    1
    18    24    25   ar
    19    25    26   ar
    20    26    27   ar
    21    27    28   ar
    22    28    29   ar
    23    29    30    1
    24    30    31    3
    25     4     5   ar
    26     5     6   ar
    27    10    11    1
    28    11    12    1
    29    11    13    1
    30    17    18   ar
    31    18    14   ar
    32    13     7    1
    33     6     1   ar
    34    29    24   ar
@<TRIPOS>MOLECULE
*****
 31 34 0 0 0
SMALL
GASTEIGER

@<TRIPOS>ATOM
      1 C         139.6268  140.3742  160.5243 C.ar    1  UNL1        0.2204
      2 N         139.1776  139.9169  161.8804 N.ar    1  UNL1       -0.2089
      3 C         138.4089  140.8489  162.7697 C.ar    1  UNL1        0.1402
      4 C         138.0894  142.2381  162.3027 C.ar    1  UNL1        0.1773
      5 C         138.5386  142.6953  160.9465 C.ar    1  UNL1        0.1402
      6 N         139.3073  141.7634  160.0574 N.ar    1  UNL1       -0.2089
      7 N         141.9328  137.5785  157.8567 N.pl3   1  UNL1       -0.2590
      8 C         140.4820  137.8468  157.5865 C.3     1  UNL1        0.1166
      9 C         139.7133  138.7787  158.4757 C.3     1  UNL1        0.1151
     10 N         140.3955  139.4423  159.6351 N.pl3   1  UNL1       -0.2764
     11 C         141.8463  139.1740  159.9053 C.3     1  UNL1        0.0955
     12 C         142.5285  139.8376  161.0648 C.3     1  UNL1        0.0233
     13 C         142.6150  138.2421  159.0161 C.3     1  UNL1        0.1149
     14 C         143.4648  134.6387  155.8378 C.ar    1  UNL1        0.2273
     15 N         144.3042  135.7866  155.3604 N.ar    1  UNL1       -0.1103
     16 N         143.8325  137.0275  156.0586 N.ar    1  UNL1       -0.0924
     17 C         142.7015  136.6466  156.9675 C.ar    1  UNL1        0.3118
     18 O         142.4743  135.1702  156.8310 O.2     1  UNL1       -0.4086
     19 C         144.5365  132.2880  156.1132 C.3     1  UNL1        0.0098
     20 C         143.5933  133.2100  155.3990 C.3     1  UNL1        0.0783
     21 C         142.7786  132.7034  154.2458 C.3     1  UNL1        0.0098
     22 O         137.3207  143.1700  163.1918 O.3     1  UNL1       -0.4675
     23 C         138.0501  144.1676  164.0420 C.3     1  UNL1        0.2329
     24 C         139.5276  144.0287  164.2607 C.ar    1  UNL1        0.0339
     25 C         140.0449  143.1028  165.3213 C.ar    1  UNL1        0.0207
     26 C         141.5224  142.9639  165.5400 C.ar    1  UNL1        0.0987
     27 N         142.4824  143.7509  164.6981 N.ar    1  UNL1       -0.2416
     28 C         141.9651  144.6769  163.6375 C.ar    1  UNL1        0.1089
     29 C         140.4876  144.8157  163.4188 C.ar    1  UNL1        0.0871
     30 C         139.9702  145.7417  162.3581 C.1     1  UNL1        0.1018
     31 N         139.4528  146.6676  161.2975 N.1     1  UNL1       -0.1908
@<TRIPOS>BOND
     1    19    20    1
     2    20    21    1
     3    20    14    1
     4    14    15   ar
     5    15    16   ar
     6    16    17   ar
     7    17     7    1
     8     7     8    1
     9     8     9    1
    10     9    10    1
    11    10     1    1
    12     1     2   ar
    13     2     3   ar
    14     3     4   ar
    15     4    22    1
    16    22    23    1
    17    23    24    1
    18    24    25   ar
    19    25    26   ar
    20    26    27   ar
    21    27    28   ar
    22    28    29   ar
    23    29    30    1
    24    30    31    3
    25     4     5   ar
    26     5     6   ar
    27    10    11    1
    28    11    12    1
    29    11    13    1
    30    17    18   ar
    31    18    14   ar
    32    13     7    1
    33     6     1   ar
    34    29    24   ar
@<TRIPOS>MOLECULE
*****
 31 34 0 0 0
SMALL
GASTEIGER

@<TRIPOS>ATOM
      1 C         140.7735  144.4325  159.7815 C.ar    1  UNL1        0.2204
      2 N         139.6429  144.0445  158.8753 N.ar    1  UNL1       -0.2089
      3 C         139.6032  144.5543  157.4651 C.ar    1  UNL1        0.1402
      4 C         140.6941  145.4520  156.9611 C.ar    1  UNL1        0.1773
      5 C         141.8248  145.8399  157.8673 C.ar    1  UNL1        0.1402
      6 N         141.8645  145.3302  159.2775 N.ar    1  UNL1       -0.2089
      7 N         140.8928  142.9031  164.0119 N.pl3   1  UNL1       -0.2590
      8 C         141.4497  142.0687  162.8968 C.3     1  UNL1        0.1166
      9 C         141.4099  142.5785  161.4867 C.3     1  UNL1        0.1151
     10 N         140.8133  143.9227  161.1917 N.pl3   1  UNL1       -0.2764
     11 C         140.2564  144.7571  162.3068 C.3     1  UNL1        0.0955
     12 C         139.6597  146.1014  162.0117 C.3     1  UNL1        0.0233
     13 C         140.2961  144.2474  163.7169 C.3     1  UNL1        0.1149
     14 C         140.6321  142.2235  167.8245 C.ar    1  UNL1        0.2273
     15 N         141.3553  140.9943  167.3598 N.ar    1  UNL1       -0.1103
     16 N         141.5410  141.0993  165.8750 N.ar    1  UNL1       -0.0924
     17 C         140.9325  142.3934  165.4221 C.ar    1  UNL1        0.3118
     18 O         140.3708  143.0882  166.6270 O.2     1  UNL1       -0.4086
     19 C         140.4469  143.9132  169.7894 C.3     1  UNL1        0.0098
     20 C         140.2391  142.5336  169.2385 C.3     1  UNL1        0.0783
     21 C         139.6383  141.4641  170.1017 C.3     1  UNL1        0.0098
     22 O         140.6544  145.9617  155.5510 O.3     1  UNL1       -0.4675
     23 C         139.4408  146.6867  155.0495 C.3     1  UNL1        0.2329
     24 C         139.2292  148.1290  155.4033 C.ar    1  UNL1        0.0339
     25 C         138.5069  148.4932  156.6664 C.ar    1  UNL1        0.0207
     26 C         138.2953  149.9355  157.0201 C.ar    1  UNL1        0.0987
     27 N         138.8060  151.0135  156.1107 N.ar    1  UNL1       -0.2416
     28 C         139.5284  150.6493  154.8475 C.ar    1  UNL1        0.1089
     29 C         139.7399  149.2070  154.4938 C.ar    1  UNL1        0.0871
     30 C         140.4623  148.8427  153.2306 C.1     1  UNL1        0.1018
     31 N         141.1846  148.4784  151.9675 N.1     1  UNL1       -0.1908
@<TRIPOS>BOND
     1    19    20    1
     2    20    21    1
     3    20    14    1
     4    14    15   ar
     5    15    16   ar
     6    16    17   ar
     7    17     7    1
     8     7     8    1
     9     8     9    1
    10     9    10    1
    11    10     1    1
    12     1     2   ar
    13     2     3   ar
    14     3     4   ar
    15     4    22    1
    16    22    23    1
    17    23    24    1
    18    24    25   ar
    19    25    26   ar
    20    26    27   ar
    21    27    28   ar
    22    28    29   ar
    23    29    30    1
    24    30    31    3
    25     4     5   ar
    26     5     6   ar
    27    10    11    1
    28    11    12    1
    29    11    13    1
    30    17    18   ar
    31    18    14   ar
    32    13     7    1
    33     6     1   ar
    34    29    24   ar
@<TRIPOS>MOLECULE
*****
 31 34 0 0 0
SMALL
GASTEIGER

@<TRIPOS>ATOM
      1 C         140.9048  138.5321  160.8102 C.ar    1  UNL1        0.2204
      2 N         139.8452  138.7000  159.7619 N.ar    1  UNL1       -0.2089
      3 C         140.1669  138.4344  158.3210 C.ar    1  UNL1        0.1402
      4 C         141.5482  138.0010  157.9285 C.ar    1  UNL1        0.1773
      5 C         142.6079  137.8331  158.9769 C.ar    1  UNL1        0.1402
      6 N         142.2861  138.0986  160.4177 N.ar    1  UNL1       -0.2089
      7 N         139.9395  139.3285  165.1327 N.pl3   1  UNL1       -0.2590
      8 C         139.5771  138.0111  164.5137 C.3     1  UNL1        0.1166
      9 C         139.8988  137.7457  163.0729 C.3     1  UNL1        0.1151
     10 N         140.5830  138.7976  162.2511 N.pl3   1  UNL1       -0.2764
     11 C         140.9455  140.1149  162.8700 C.3     1  UNL1        0.0955
     12 C         141.6296  141.1668  162.0482 C.3     1  UNL1        0.0233
     13 C         140.6237  140.3804  164.3108 C.3     1  UNL1        0.1149
     14 C         139.7017  140.4774  168.8326 C.ar    1  UNL1        0.2273
     15 N         138.5436  139.5276  168.7490 N.ar    1  UNL1       -0.1103
     16 N         138.4918  138.9817  167.3529 N.ar    1  UNL1       -0.0924
     17 C         139.6178  139.5940  166.5736 C.ar    1  UNL1        0.3118
     18 O         140.3655  140.5184  167.4881 O.2     1  UNL1       -0.4086
     19 C         140.7847  140.5448  171.1932 C.3     1  UNL1        0.0098
     20 C         140.1221  141.2504  170.0474 C.3     1  UNL1        0.0783
     21 C         139.8798  142.7291  170.1163 C.3     1  UNL1        0.0098
     22 O         141.8700  137.7355  156.4877 O.3     1  UNL1       -0.4675
     23 C         142.9705  136.7817  156.1285 C.3     1  UNL1        0.2329
     24 C         142.7487  135.3027  156.2441 C.ar    1  UNL1        0.0339
     25 C         143.5367  134.5015  157.2376 C.ar    1  UNL1        0.0207
     26 C         143.3149  133.0226  157.3532 C.ar    1  UNL1        0.0987
     27 N         142.3050  132.3448  156.4753 N.ar    1  UNL1       -0.2416
     28 C         141.5170  133.1459  155.4818 C.ar    1  UNL1        0.1089
     29 C         141.7388  134.6249  155.3662 C.ar    1  UNL1        0.0871
     30 C         140.9508  135.4262  154.3727 C.1     1  UNL1        0.1018
     31 N         140.1628  136.2273  153.3792 N.1     1  UNL1       -0.1908
@<TRIPOS>BOND
     1    19    20    1
     2    20    21    1
     3    20    14    1
     4    14    15   ar
     5    15    16   ar
     6    16    17   ar
     7    17     7    1
     8     7     8    1
     9     8     9    1
    10     9    10    1
    11    10     1    1
    12     1     2   ar
    13     2     3   ar
    14     3     4   ar
    15     4    22    1
    16    22    23    1
    17    23    24    1
    18    24    25   ar
    19    25    26   ar
    20    26    27   ar
    21    27    28   ar
    22    28    29   ar
    23    29    30    1
    24    30    31    3
    25     4     5   ar
    26     5     6   ar
    27    10    11    1
    28    11    12    1
    29    11    13    1
    30    17    18   ar
    31    18    14   ar
    32    13     7    1
    33     6     1   ar
    34    29    24   ar
@<TRIPOS>MOLECULE
*****
 31 34 0 0 0
SMALL
GASTEIGER

@<TRIPOS>ATOM
      1 C         141.1516  141.4951  158.9727 C.ar    1  UNL1        0.2204
      2 N         142.1175  142.6419  159.0141 N.ar    1  UNL1       -0.2089
      3 C         141.6692  143.9822  159.5171 C.ar    1  UNL1        0.1402
      4 C         140.2551  144.1755  159.9785 C.ar    1  UNL1        0.1773
      5 C         139.2893  143.0285  159.9371 C.ar    1  UNL1        0.1402
      6 N         139.7375  141.6884  159.4342 N.ar    1  UNL1       -0.2089
      7 N         142.4961  137.4744  157.4639 N.pl3   1  UNL1       -0.2590
      8 C         141.9463  138.4894  156.5061 C.3     1  UNL1        0.1166
      9 C         141.4982  139.8296  157.0090 C.3     1  UNL1        0.1151
     10 N         141.5998  140.1548  158.4698 N.pl3   1  UNL1       -0.2764
     11 C         142.1496  139.1398  159.4276 C.3     1  UNL1        0.0955
     12 C         142.2512  139.4650  160.8884 C.3     1  UNL1        0.0233
     13 C         142.5978  137.7996  158.9247 C.3     1  UNL1        0.1149
     14 C         143.7236  133.8366  156.8936 C.ar    1  UNL1        0.2273
     15 N         143.5445  134.3069  155.4805 N.ar    1  UNL1       -0.1103
     16 N         143.0629  135.7269  155.5222 N.ar    1  UNL1       -0.0924
     17 C         142.9444  136.1341  156.9610 C.ar    1  UNL1        0.3118
     18 O         143.3527  134.9659  157.8085 O.2     1  UNL1       -0.4086
     19 C         145.5025  132.3217  158.0296 C.3     1  UNL1        0.0098
     20 C         144.1915  132.4759  157.3173 C.3     1  UNL1        0.0783
     21 C         143.3484  131.2693  157.0286 C.3     1  UNL1        0.0098
     22 O         139.8069  145.5157  160.4814 O.3     1  UNL1       -0.4675
     23 C         140.1566  145.9494  161.8741 C.3     1  UNL1        0.2329
     24 C         139.9498  145.0112  163.0261 C.ar    1  UNL1        0.0339
     25 C         138.5603  144.6831  163.4860 C.ar    1  UNL1        0.0207
     26 C         138.3535  143.7449  164.6379 C.ar    1  UNL1        0.0987
     27 N         139.5363  143.1348  165.3299 N.ar    1  UNL1       -0.2416
     28 C         140.9258  143.4629  164.8700 C.ar    1  UNL1        0.1089
     29 C         141.1326  144.4011  163.7181 C.ar    1  UNL1        0.0871
     30 C         142.5221  144.7292  163.2581 C.1     1  UNL1        0.1018
     31 N         143.9116  145.0573  162.7982 N.1     1  UNL1       -0.1908
@<TRIPOS>BOND
     1    19    20    1
     2    20    21    1
     3    20    14    1
     4    14    15   ar
     5    15    16   ar
     6    16    17   ar
     7    17     7    1
     8     7     8    1
     9     8     9    1
    10     9    10    1
    11    10     1    1
    12     1     2   ar
    13     2     3   ar
    14     3     4   ar
    15     4    22    1
    16    22    23    1
    17    23    24    1
    18    24    25   ar
    19    25    26   ar
    20    26    27   ar
    21    27    28   ar
    22    28    29   ar
    23    29    30    1
    24    30    31    3
    25     4     5   ar
    26     5     6   ar
    27    10    11    1
    28    11    12    1
    29    11    13    1
    30    17    18   ar
    31    18    14   ar
    32    13     7    1
    33     6     1   ar
    34    29    24   ar
@<TRIPOS>MOLECULE
*****
 31 34 0 0 0
SMALL
GASTEIGER

@<TRIPOS>ATOM
      1 C         139.3524  142.7749  160.0170 C.ar    1  UNL1        0.2204
      2 N         140.4192  141.7875  160.3870 N.ar    1  UNL1       -0.2089
      3 C         140.2135  140.8614  161.5489 C.ar    1  UNL1        0.1402
      4 C         138.9410  140.9227  162.3408 C.ar    1  UNL1        0.1773
      5 C         137.8742  141.9102  161.9707 C.ar    1  UNL1        0.1402
      6 N         138.0799  142.8363  160.8088 N.ar    1  UNL1       -0.2089
      7 N         139.9693  145.5532  156.5312 N.pl3   1  UNL1       -0.2590
      8 C         139.3237  144.2160  156.3193 C.3     1  UNL1        0.1166
      9 C         139.1181  143.2899  157.4812 C.3     1  UNL1        0.1151
     10 N         139.5580  143.7011  158.8550 N.pl3   1  UNL1       -0.2764
     11 C         140.2036  145.0384  159.0670 C.3     1  UNL1        0.0955
     12 C         140.6436  145.4495  160.4408 C.3     1  UNL1        0.0233
     13 C         140.4092  145.9644  157.9051 C.3     1  UNL1        0.1149
     14 C         140.1290  148.4478  153.9502 C.ar    1  UNL1        0.2273
     15 N         140.8539  147.3613  153.2124 N.ar    1  UNL1       -0.1103
     16 N         140.8823  146.1448  154.0895 N.ar    1  UNL1       -0.0924
     17 C         140.1750  146.4794  155.3693 C.ar    1  UNL1        0.3118
     18 O         139.7094  147.9027  155.2831 O.2     1  UNL1       -0.4086
     19 C         139.2516  150.8606  154.3481 C.3     1  UNL1        0.0098
     20 C         139.8693  149.8356  153.4437 C.3     1  UNL1        0.0783
     21 C         140.2273  150.1985  152.0330 C.3     1  UNL1        0.0098
     22 O         138.7354  139.9966  163.5027 O.3     1  UNL1       -0.4675
     23 C         138.2433  140.5354  164.8132 C.3     1  UNL1        0.2329
     24 C         139.2053  140.7526  165.9435 C.ar    1  UNL1        0.0339
     25 C         140.2534  141.8207  165.8415 C.ar    1  UNL1        0.0207
     26 C         141.2153  142.0379  166.9718 C.ar    1  UNL1        0.0987
     27 N         141.1290  141.1870  168.2041 N.ar    1  UNL1       -0.2416
     28 C         140.0808  140.1189  168.3061 C.ar    1  UNL1        0.1089
     29 C         139.1190  139.9017  167.1758 C.ar    1  UNL1        0.0871
     30 C         138.0707  138.8335  167.2777 C.1     1  UNL1        0.1018
     31 N         137.0225  137.7655  167.3796 N.1     1  UNL1       -0.1908
@<TRIPOS>BOND
     1    19    20    1
     2    20    21    1
     3    20    14    1
     4    14    15   ar
     5    15    16   ar
     6    16    17   ar
     7    17     7    1
     8     7     8    1
     9     8     9    1
    10     9    10    1
    11    10     1    1
    12     1     2   ar
    13     2     3   ar
    14     3     4   ar
    15     4    22    1
    16    22    23    1
    17    23    24    1
    18    24    25   ar
    19    25    26   ar
    20    26    27   ar
    21    27    28   ar
    22    28    29   ar
    23    29    30    1
    24    30    31    3
    25     4     5   ar
    26     5     6   ar
    27    10    11    1
    28    11    12    1
    29    11    13    1
    30    17    18   ar
    31    18    14   ar
    32    13     7    1
    33     6     1   ar
    34    29    24   ar
@<TRIPOS>MOLECULE
*****
 31 34 0 0 0
SMALL
GASTEIGER

@<TRIPOS>ATOM
      1 C         140.8509  143.8808  160.0434 C.ar    1  UNL1        0.2204
      2 N         141.6340  145.1304  159.7692 N.ar    1  UNL1       -0.2089
      3 C         141.4315  145.8754  158.4830 C.ar    1  UNL1        0.1402
      4 C         140.4458  145.3708  157.4712 C.ar    1  UNL1        0.1773
      5 C         139.6627  144.1211  157.7455 C.ar    1  UNL1        0.1402
      6 N         139.8652  143.3762  159.0316 N.ar    1  UNL1       -0.2089
      7 N         141.4586  141.6458  163.9016 N.pl3   1  UNL1       -0.2590
      8 C         142.2626  141.2811  162.6889 C.3     1  UNL1        0.1166
      9 C         142.0600  142.0261  161.4029 C.3     1  UNL1        0.1151
     10 N         141.0535  143.1358  161.3295 N.pl3   1  UNL1       -0.2764
     11 C         140.2495  143.5006  162.5422 C.3     1  UNL1        0.0955
     12 C         139.2430  144.6103  162.4688 C.3     1  UNL1        0.0233
     13 C         140.4521  142.7556  163.8282 C.3     1  UNL1        0.1149
     14 C         141.3999  140.1286  167.4737 C.ar    1  UNL1        0.2273
     15 N         142.5459  139.3802  166.8597 N.ar    1  UNL1       -0.1103
     16 N         142.7073  139.8575  165.4469 N.ar    1  UNL1       -0.0924
     17 C         141.6612  140.9008  165.1877 C.ar    1  UNL1        0.3118
     18 O         140.8532  141.0683  166.4403 O.2     1  UNL1       -0.4086
     19 C         139.4817  140.3569  169.2110 C.3     1  UNL1        0.0098
     20 C         140.8902  139.9657  168.8750 C.3     1  UNL1        0.0783
     21 C         141.7891  139.4116  169.9404 C.3     1  UNL1        0.0098
     22 O         140.2432  146.1157  156.1852 O.3     1  UNL1       -0.4675
     23 C         139.0772  147.0470  156.0336 C.3     1  UNL1        0.2329
     24 C         139.2201  148.3023  155.2248 C.ar    1  UNL1        0.0339
     25 C         139.7713  148.2380  153.8313 C.ar    1  UNL1        0.0207
     26 C         139.9142  149.4932  153.0227 C.ar    1  UNL1        0.0987
     27 N         139.5057  150.8127  153.6075 N.ar    1  UNL1       -0.2416
     28 C         138.9545  150.8770  155.0011 C.ar    1  UNL1        0.1089
     29 C         138.8116  149.6218  155.8097 C.ar    1  UNL1        0.0871
     30 C         138.2603  149.6860  157.2033 C.1     1  UNL1        0.1018
     31 N         137.7091  149.7503  158.5968 N.1     1  UNL1       -0.1908
@<TRIPOS>BOND
     1    19    20    1
     2    20    21    1
     3    20    14    1
     4    14    15   ar
     5    15    16   ar
     6    16    17   ar
     7    17     7    1
     8     7     8    1
     9     8     9    1
    10     9    10    1
    11    10     1    1
    12     1     2   ar
    13     2     3   ar
    14     3     4   ar
    15     4    22    1
    16    22    23    1
    17    23    24    1
    18    24    25   ar
    19    25    26   ar
    20    26    27   ar
    21    27    28   ar
    22    28    29   ar
    23    29    30    1
    24    30    31    3
    25     4     5   ar
    26     5     6   ar
    27    10    11    1
    28    11    12    1
    29    11    13    1
    30    17    18   ar
    31    18    14   ar
    32    13     7    1
    33     6     1   ar
    34    29    24   ar
