@<TRIPOS>MOLECULE
*****
 40 42 0 0 0
SMALL
GASTEIGER

@<TRIPOS>ATOM
      1 C         138.9773  142.5064  161.8898 C.2     1  UNL1        0.2485
      2 O         138.0033  143.6471  161.8833 O.2     1  UNL1       -0.2726
      3 N         139.9576  142.3509  160.7650 N.am    1  UNL1       -0.2823
      4 H         140.5969  141.6023  160.7692 H       1  UNL1        0.1549
      5 C         140.0637  141.7564  167.3573 C.ar    1  UNL1        0.1055
      6 C         140.2285  143.0212  166.5679 C.ar    1  UNL1        0.0181
      7 C         139.8887  143.0433  165.1071 C.ar    1  UNL1       -0.0011
      8 C         139.3840  141.8006  164.4356 C.ar    1  UNL1        0.0022
      9 C         139.2191  140.5358  165.2249 C.ar    1  UNL1       -0.0030
     10 C         139.5590  140.5137  166.6857 C.ar    1  UNL1        0.0155
     11 C         138.7044  139.4747  164.2979 C.3     1  UNL1        0.1206
     12 N         138.5512  140.0837  162.9358 N.am    1  UNL1       -0.2655
     13 C         138.0636  139.3790  161.7046 C.2     1  UNL1        0.2269
     14 C         137.6770  137.9313  161.7726 C.3     1  UNL1        0.0949
     15 O         137.9626  140.1220  160.4055 O.2     1  UNL1       -0.2748
     16 C         138.9712  141.5212  163.0208 C.3     1  UNL1        0.1750
     17 S         140.4035  141.7342  168.8181 S.O2    1  UNL1        0.0112
     18 O         140.2409  140.2431  168.8333 O.2     1  UNL1       -0.1685
     19 O         140.5661  143.2253  168.8029 O.2     1  UNL1       -0.1685
     20 C         140.7433  141.7121  170.2789 C.3     1  UNL1        0.1878
     21 C         142.1073  141.2758  170.7251 C.3     1  UNL1        0.1680
     22 C         144.2276  142.5337  169.9053 C.3     1  UNL1        0.1742
     23 O         143.2731  141.3826  169.7872 O.3     1  UNL1       -0.3492
     24 C         139.9637  143.3361  159.6339 C.ar    1  UNL1        0.0503
     25 C         139.2384  143.0195  158.3596 C.ar    1  UNL1        0.0144
     26 C         139.2446  144.0047  157.2286 C.ar    1  UNL1       -0.0002
     27 C         139.9759  145.3064  157.3716 C.ar    1  UNL1        0.0182
     28 C         140.7012  145.6230  158.6459 C.ar    1  UNL1       -0.0002
     29 C         140.6951  144.6378  159.7770 C.ar    1  UNL1        0.0144
     30 C         139.9820  146.2916  156.2406 C.3     1  UNL1        0.2827
     31 O         139.3861  147.3312  157.1428 O.3     1  UNL1       -0.3692
     32 H         139.2539  146.9546  158.0269 H       1  UNL1        0.2112
     33 C         139.9882  147.2768  155.1095 C.3     1  UNL1        0.4311
     34 F         139.9943  148.2619  153.9784 F       1  UNL1       -0.1669
     35 F         138.4883  147.2701  155.0955 F       1  UNL1       -0.1669
     36 F         140.8677  147.3516  155.0363 F       1  UNL1       -0.1669
     37 C         140.5780  145.2520  155.3383 C.3     1  UNL1        0.4311
     38 F         141.1740  144.2124  154.4361 F       1  UNL1       -0.1669
     39 F         139.8503  145.0956  154.8582 F       1  UNL1       -0.1669
     40 F         141.9980  145.1354  155.8072 F       1  UNL1       -0.1669
@<TRIPOS>BOND
     1    22    23    1
     2    23    21    1
     3    21    20    1
     4    20    17    1
     5    17    18    2
     6    17    19    2
     7    17     5    1
     8     5     6   ar
     9     6     7   ar
    10     7     8   ar
    11     8     9   ar
    12     9    10   ar
    13     9    11    1
    14    11    12    1
    15    12    13   am
    16    13    14    1
    17    13    15    2
    18    12    16    1
    19    16     1    1
    20     1     2    2
    21     1     3   am
    22     3    24    1
    23    24    25   ar
    24    25    26   ar
    25    26    27   ar
    26    27    30    1
    27    30    31    1
    28    30    33    1
    29    33    34    1
    30    33    35    1
    31    33    36    1
    32    30    37    1
    33    37    38    1
    34    37    39    1
    35    37    40    1
    36    27    28   ar
    37    28    29   ar
    38    10     5   ar
    39    29    24   ar
    40    16     8    1
    41     3     4    1
    42    31    32    1
@<TRIPOS>MOLECULE
*****
 40 42 0 0 0
SMALL
GASTEIGER

@<TRIPOS>ATOM
      1 C         142.5251  138.1226  157.3359 C.2     1  UNL1        0.2485
      2 O         141.3723  138.2617  158.2854 O.2     1  UNL1       -0.2726
      3 N         143.7079  139.0377  157.4532 N.am    1  UNL1       -0.2823
      4 H         144.4646  138.9465  156.8301 H       1  UNL1        0.1549
      5 C         143.5673  132.7221  156.1592 C.ar    1  UNL1        0.1055
      6 C         143.7589  133.4137  157.4764 C.ar    1  UNL1        0.0181
      7 C         143.4277  134.8702  157.6139 C.ar    1  UNL1       -0.0011
      8 C         142.9050  135.6351  156.4343 C.ar    1  UNL1        0.0022
      9 C         142.7134  134.9436  155.1171 C.ar    1  UNL1       -0.0030
     10 C         143.0446  133.4871  154.9796 C.ar    1  UNL1        0.0155
     11 C         142.1853  135.9496  154.1378 C.3     1  UNL1        0.1206
     12 N         142.0505  137.2630  154.8498 N.am    1  UNL1       -0.2655
     13 C         141.5574  138.5456  154.2481 C.2     1  UNL1        0.2269
     14 C         141.1450  138.5879  152.8065 C.3     1  UNL1        0.0949
     15 O         141.4768  139.7857  155.0880 O.2     1  UNL1       -0.2748
     16 C         142.4953  137.0686  156.2691 C.3     1  UNL1        0.1750
     17 S         143.8985  131.2656  156.0217 S.O2    1  UNL1        0.0112
     18 O         145.3594  131.5873  156.1327 O.2     1  UNL1       -0.1685
     19 O         142.4376  130.9439  155.9107 O.2     1  UNL1       -0.1685
     20 C         144.2297  129.8091  155.8842 C.3     1  UNL1        0.1878
     21 C         144.3425  128.9470  157.1064 C.3     1  UNL1        0.1680
     22 C         143.7237  128.6058  159.6066 C.3     1  UNL1        0.1742
     23 O         144.0371  129.5194  158.4588 O.3     1  UNL1       -0.3492
     24 C         143.7378  140.0917  158.5200 C.ar    1  UNL1        0.0503
     25 C         143.8731  141.5372  158.1427 C.ar    1  UNL1        0.0144
     26 C         143.9030  142.5912  159.2095 C.ar    1  UNL1       -0.0002
     27 C         143.7975  142.1999  160.6536 C.ar    1  UNL1        0.0182
     28 C         143.6621  140.7545  161.0310 C.ar    1  UNL1       -0.0002
     29 C         143.6323  139.7004  159.9642 C.ar    1  UNL1        0.0144
     30 C         143.8274  143.2540  161.7204 C.3     1  UNL1        0.2827
     31 O         142.7311  143.9975  161.0165 O.3     1  UNL1       -0.3692
     32 H         142.4766  143.5151  160.2144 H       1  UNL1        0.2112
     33 C         143.8572  144.3080  162.7873 C.3     1  UNL1        0.4311
     34 F         143.8871  145.3621  163.8541 F       1  UNL1       -0.1669
     35 F         142.4989  143.8748  163.2533 F       1  UNL1       -0.1669
     36 F         144.6555  144.6378  162.5909 F       1  UNL1       -0.1669
     37 C         144.9236  142.5105  162.4244 C.3     1  UNL1        0.4311
     38 F         146.0198  141.7670  163.1283 F       1  UNL1       -0.1669
     39 F         145.5386  142.6022  161.7936 F       1  UNL1       -0.1669
     40 F         144.3013  142.0901  163.7228 F       1  UNL1       -0.1669
@<TRIPOS>BOND
     1    22    23    1
     2    23    21    1
     3    21    20    1
     4    20    17    1
     5    17    18    2
     6    17    19    2
     7    17     5    1
     8     5     6   ar
     9     6     7   ar
    10     7     8   ar
    11     8     9   ar
    12     9    10   ar
    13     9    11    1
    14    11    12    1
    15    12    13   am
    16    13    14    1
    17    13    15    2
    18    12    16    1
    19    16     1    1
    20     1     2    2
    21     1     3   am
    22     3    24    1
    23    24    25   ar
    24    25    26   ar
    25    26    27   ar
    26    27    30    1
    27    30    31    1
    28    30    33    1
    29    33    34    1
    30    33    35    1
    31    33    36    1
    32    30    37    1
    33    37    38    1
    34    37    39    1
    35    37    40    1
    36    27    28   ar
    37    28    29   ar
    38    10     5   ar
    39    29    24   ar
    40    16     8    1
    41     3     4    1
    42    31    32    1
@<TRIPOS>MOLECULE
*****
 40 42 0 0 0
SMALL
GASTEIGER

@<TRIPOS>ATOM
      1 C         143.0201  139.1583  157.7818 C.2     1  UNL1        0.2485
      2 O         143.1380  138.0377  158.7718 O.2     1  UNL1       -0.2726
      3 N         142.7740  138.8564  156.3332 N.am    1  UNL1       -0.2823
      4 H         142.6967  139.5919  155.6833 H       1  UNL1        0.1549
      5 C         140.7470  143.1990  160.9664 C.ar    1  UNL1        0.1055
      6 C         140.2414  141.7984  160.7859 C.ar    1  UNL1        0.0181
      7 C         140.9772  140.8448  159.8920 C.ar    1  UNL1       -0.0011
      8 C         142.2187  141.2917  159.1786 C.ar    1  UNL1        0.0022
      9 C         142.7243  142.6923  159.3591 C.ar    1  UNL1       -0.0030
     10 C         141.9885  143.6460  160.2530 C.ar    1  UNL1        0.0155
     11 C         143.9663  142.8470  158.5323 C.3     1  UNL1        0.1206
     12 N         144.2283  141.5420  157.8408 N.am    1  UNL1       -0.2655
     13 C         145.3699  141.2494  156.9128 C.2     1  UNL1        0.2269
     14 C         146.3786  142.3161  156.6051 C.3     1  UNL1        0.0949
     15 O         145.5028  139.8902  156.2924 O.2     1  UNL1       -0.2748
     16 C         143.1482  140.5808  158.2402 C.3     1  UNL1        0.1750
     17 S         140.0112  144.1527  161.8603 S.O2    1  UNL1        0.0112
     18 O         138.7413  143.8741  161.1122 O.2     1  UNL1       -0.1685
     19 O         141.2811  144.4312  162.6085 O.2     1  UNL1       -0.1685
     20 C         139.2753  145.1063  162.7543 C.3     1  UNL1        0.1878
     21 C         139.1501  144.8151  164.2204 C.3     1  UNL1        0.1680
     22 C         137.7576  142.6310  164.4227 C.3     1  UNL1        0.1742
     23 O         137.9472  144.0848  164.7399 O.3     1  UNL1       -0.3492
     24 C         142.6459  137.4340  155.8748 C.ar    1  UNL1        0.0503
     25 C         143.8739  136.5939  155.6843 C.ar    1  UNL1        0.0144
     26 C         143.7458  135.1714  155.2259 C.ar    1  UNL1       -0.0002
     27 C         142.3898  134.5890  154.9578 C.ar    1  UNL1        0.0182
     28 C         141.1618  135.4291  155.1483 C.ar    1  UNL1       -0.0002
     29 C         141.2899  136.8516  155.6067 C.ar    1  UNL1        0.0144
     30 C         142.2616  133.1665  154.4994 C.3     1  UNL1        0.2827
     31 O         141.9844  133.6413  153.1038 O.3     1  UNL1       -0.3692
     32 H         142.0028  134.6109  153.0825 H       1  UNL1        0.2112
     33 C         142.1335  131.7441  154.0410 C.3     1  UNL1        0.4311
     34 F         142.0054  130.3216  153.5825 F       1  UNL1       -0.1669
     35 F         143.3764  131.8982  153.2154 F       1  UNL1       -0.1669
     36 F         141.3959  131.5514  154.4918 F       1  UNL1       -0.1669
     37 C         142.5388  132.6918  155.8950 C.3     1  UNL1        0.4311
     38 F         142.8160  132.2170  157.2906 F       1  UNL1       -0.1669
     39 F         141.7643  132.9366  156.2482 F       1  UNL1       -0.1669
     40 F         143.9211  132.1150  155.8144 F       1  UNL1       -0.1669
@<TRIPOS>BOND
     1    22    23    1
     2    23    21    1
     3    21    20    1
     4    20    17    1
     5    17    18    2
     6    17    19    2
     7    17     5    1
     8     5     6   ar
     9     6     7   ar
    10     7     8   ar
    11     8     9   ar
    12     9    10   ar
    13     9    11    1
    14    11    12    1
    15    12    13   am
    16    13    14    1
    17    13    15    2
    18    12    16    1
    19    16     1    1
    20     1     2    2
    21     1     3   am
    22     3    24    1
    23    24    25   ar
    24    25    26   ar
    25    26    27   ar
    26    27    30    1
    27    30    31    1
    28    30    33    1
    29    33    34    1
    30    33    35    1
    31    33    36    1
    32    30    37    1
    33    37    38    1
    34    37    39    1
    35    37    40    1
    36    27    28   ar
    37    28    29   ar
    38    10     5   ar
    39    29    24   ar
    40    16     8    1
    41     3     4    1
    42    31    32    1
@<TRIPOS>MOLECULE
*****
 40 42 0 0 0
SMALL
GASTEIGER

@<TRIPOS>ATOM
      1 C         141.0873  140.5613  161.6840 C.2     1  UNL1        0.2485
      2 O         139.9991  139.5294  161.6516 O.2     1  UNL1       -0.2726
      3 N         142.1102  140.6070  160.5878 N.am    1  UNL1       -0.2823
      4 H         142.8244  141.2842  160.6090 H       1  UNL1        0.1549
      5 C         142.2712  141.2554  167.1385 C.ar    1  UNL1        0.1055
      6 C         142.3507  139.9811  166.3512 C.ar    1  UNL1        0.0181
      7 C         141.9958  139.9766  164.8938 C.ar    1  UNL1       -0.0011
      8 C         141.5614  141.2464  164.2238 C.ar    1  UNL1        0.0022
      9 C         141.4819  142.5206  165.0111 C.ar    1  UNL1       -0.0030
     10 C         141.8368  142.5251  166.4685 C.ar    1  UNL1        0.0155
     11 C         141.0239  143.6092  164.0863 C.3     1  UNL1        0.1206
     12 N         140.8203  143.0077  162.7273 N.am    1  UNL1       -0.2655
     13 C         140.3646  143.7382  161.4990 C.2     1  UNL1        0.2269
     14 C         140.0679  145.2070  161.5667 C.3     1  UNL1        0.0949
     15 O         140.2056  143.0000  160.2030 O.2     1  UNL1       -0.2748
     16 C         141.1525  141.5474  162.8123 C.3     1  UNL1        0.1750
     17 S         142.6262  141.2598  168.5959 S.O2    1  UNL1        0.0112
     18 O         143.4114  142.5229  168.4008 O.2     1  UNL1       -0.1685
     19 O         141.8410  139.9967  168.7910 O.2     1  UNL1       -0.1685
     20 C         142.9811  141.2643  170.0533 C.3     1  UNL1        0.1878
     21 C         141.9241  140.9974  171.0835 C.3     1  UNL1        0.1680
     22 C         140.0225  142.7275  170.7083 C.3     1  UNL1        0.1742
     23 O         141.0720  142.1221  171.5926 O.3     1  UNL1       -0.3492
     24 C         142.0450  139.6208  159.4595 C.ar    1  UNL1        0.0503
     25 C         142.8074  138.3318  159.5449 C.ar    1  UNL1        0.0144
     26 C         142.7422  137.3457  158.4165 C.ar    1  UNL1       -0.0002
     27 C         141.9145  137.6484  157.2027 C.ar    1  UNL1        0.0182
     28 C         141.1521  138.9374  157.1173 C.ar    1  UNL1       -0.0002
     29 C         141.2173  139.9235  158.2457 C.ar    1  UNL1        0.0144
     30 C         141.8493  136.6622  156.0743 C.3     1  UNL1        0.2827
     31 O         140.3909  136.4443  156.3491 O.3     1  UNL1       -0.3692
     32 H         140.1163  136.9986  157.0963 H       1  UNL1        0.2112
     33 C         141.7840  135.6761  154.9460 C.3     1  UNL1        0.4311
     34 F         141.7188  134.6899  153.8176 F       1  UNL1       -0.1669
     35 F         141.5546  134.5665  155.9290 F       1  UNL1       -0.1669
     36 F         141.9138  136.2554  154.2886 F       1  UNL1       -0.1669
     37 C         143.3077  136.8801  155.7996 C.3     1  UNL1        0.4311
     38 F         144.7661  137.0980  155.5248 F       1  UNL1       -0.1669
     39 F         143.2403  137.7163  155.5152 F       1  UNL1       -0.1669
     40 F         143.9461  135.5746  156.1711 F       1  UNL1       -0.1669
@<TRIPOS>BOND
     1    22    23    1
     2    23    21    1
     3    21    20    1
     4    20    17    1
     5    17    18    2
     6    17    19    2
     7    17     5    1
     8     5     6   ar
     9     6     7   ar
    10     7     8   ar
    11     8     9   ar
    12     9    10   ar
    13     9    11    1
    14    11    12    1
    15    12    13   am
    16    13    14    1
    17    13    15    2
    18    12    16    1
    19    16     1    1
    20     1     2    2
    21     1     3   am
    22     3    24    1
    23    24    25   ar
    24    25    26   ar
    25    26    27   ar
    26    27    30    1
    27    30    31    1
    28    30    33    1
    29    33    34    1
    30    33    35    1
    31    33    36    1
    32    30    37    1
    33    37    38    1
    34    37    39    1
    35    37    40    1
    36    27    28   ar
    37    28    29   ar
    38    10     5   ar
    39    29    24   ar
    40    16     8    1
    41     3     4    1
    42    31    32    1
@<TRIPOS>MOLECULE
*****
 40 42 0 0 0
SMALL
GASTEIGER

@<TRIPOS>ATOM
      1 C         142.5354  138.0545  158.2407 C.2     1  UNL1        0.2485
      2 O         143.7083  138.9413  157.9445 O.2     1  UNL1       -0.2726
      3 N         141.8823  138.1008  159.5902 N.am    1  UNL1       -0.2823
      4 H         141.1124  137.5188  159.7847 H       1  UNL1        0.1549
      5 C         143.2456  133.0651  155.7432 C.ar    1  UNL1        0.1055
      6 C         144.0721  133.6472  156.8513 C.ar    1  UNL1        0.0181
      7 C         143.7391  135.0016  157.4034 C.ar    1  UNL1       -0.0011
      8 C         142.5797  135.7739  156.8473 C.ar    1  UNL1        0.0022
      9 C         141.7532  135.1917  155.7392 C.ar    1  UNL1       -0.0030
     10 C         142.0862  133.8374  155.1871 C.ar    1  UNL1        0.0155
     11 C         140.6783  136.1796  155.3945 C.3     1  UNL1        0.1206
     12 N         140.8405  137.3722  156.2896 N.am    1  UNL1       -0.2655
     13 C         139.9788  138.6001  156.2873 C.2     1  UNL1        0.2269
     14 C         138.8322  138.7099  155.3264 C.3     1  UNL1        0.0949
     15 O         140.2638  139.7181  157.2458 O.2     1  UNL1       -0.2748
     16 C         142.0156  137.1215  157.1875 C.3     1  UNL1        0.1750
     17 S         143.5786  131.7107  155.1911 S.O2    1  UNL1        0.0112
     18 O         144.9599  131.8158  155.7663 O.2     1  UNL1       -0.1685
     19 O         142.1972  131.6056  154.6160 O.2     1  UNL1       -0.1685
     20 C         143.9115  130.3563  154.6391 C.3     1  UNL1        0.1878
     21 C         144.3074  129.2453  155.5658 C.3     1  UNL1        0.1680
     22 C         143.9744  129.3392  158.1407 C.3     1  UNL1        0.1742
     23 O         143.4776  128.9498  156.7800 O.3     1  UNL1       -0.3492
     24 C         142.4020  139.0338  160.6434 C.ar    1  UNL1        0.0503
     25 C         143.5452  138.6141  161.5192 C.ar    1  UNL1        0.0144
     26 C         144.0650  139.5471  162.5724 C.ar    1  UNL1       -0.0002
     27 C         143.4417  140.8999  162.7499 C.ar    1  UNL1        0.0182
     28 C         142.2985  141.3196  161.8741 C.ar    1  UNL1       -0.0002
     29 C         141.7787  140.3866  160.8209 C.ar    1  UNL1        0.0144
     30 C         143.9615  141.8329  163.8031 C.3     1  UNL1        0.2827
     31 O         143.5219  140.8740  164.8695 O.3     1  UNL1       -0.3692
     32 H         143.1103  140.0985  164.4573 H       1  UNL1        0.2112
     33 C         144.4813  142.7660  164.8563 C.3     1  UNL1        0.4311
     34 F         145.0011  143.6990  165.9095 F       1  UNL1       -0.1669
     35 F         143.0771  143.0388  165.3076 F       1  UNL1       -0.1669
     36 F         145.3417  142.6732  164.6676 F       1  UNL1       -0.1669
     37 C         144.4011  142.7918  162.7367 C.3     1  UNL1        0.4311
     38 F         144.8406  143.7507  161.6703 F       1  UNL1       -0.1669
     39 F         143.8070  143.4256  162.9098 F       1  UNL1       -0.1669
     40 F         145.5432  142.0889  162.0649 F       1  UNL1       -0.1669
@<TRIPOS>BOND
     1    22    23    1
     2    23    21    1
     3    21    20    1
     4    20    17    1
     5    17    18    2
     6    17    19    2
     7    17     5    1
     8     5     6   ar
     9     6     7   ar
    10     7     8   ar
    11     8     9   ar
    12     9    10   ar
    13     9    11    1
    14    11    12    1
    15    12    13   am
    16    13    14    1
    17    13    15    2
    18    12    16    1
    19    16     1    1
    20     1     2    2
    21     1     3   am
    22     3    24    1
    23    24    25   ar
    24    25    26   ar
    25    26    27   ar
    26    27    30    1
    27    30    31    1
    28    30    33    1
    29    33    34    1
    30    33    35    1
    31    33    36    1
    32    30    37    1
    33    37    38    1
    34    37    39    1
    35    37    40    1
    36    27    28   ar
    37    28    29   ar
    38    10     5   ar
    39    29    24   ar
    40    16     8    1
    41     3     4    1
    42    31    32    1
@<TRIPOS>MOLECULE
*****
 40 42 0 0 0
SMALL
GASTEIGER

@<TRIPOS>ATOM
      1 C         141.9498  141.1008  162.1432 C.2     1  UNL1        0.2485
      2 O         143.2406  141.0816  162.9069 O.2     1  UNL1       -0.2726
      3 N         140.6430  141.0462  162.8777 N.am    1  UNL1       -0.2823
      4 H         139.7957  141.0588  162.3765 H       1  UNL1        0.1549
      5 C         142.6583  138.1782  157.3900 C.ar    1  UNL1        0.1055
      6 C         142.7382  137.6549  158.7935 C.ar    1  UNL1        0.0181
      7 C         142.5208  138.5815  159.9529 C.ar    1  UNL1       -0.0011
      8 C         142.2235  140.0313  159.7089 C.ar    1  UNL1        0.0022
      9 C         142.1436  140.5546  158.3054 C.ar    1  UNL1       -0.0030
     10 C         142.3610  139.6280  157.1460 C.ar    1  UNL1        0.0155
     11 C         141.8363  142.0212  158.3742 C.3     1  UNL1        0.1206
     12 N         141.7263  142.4043  159.8203 N.am    1  UNL1       -0.2655
     13 C         141.4291  143.7763  160.3488 C.2     1  UNL1        0.2269
     14 C         141.2113  144.9155  159.3976 C.3     1  UNL1        0.0949
     15 O         141.3497  144.0092  161.8285 O.2     1  UNL1       -0.2748
     16 C         141.9656  141.1745  160.6451 C.3     1  UNL1        0.1750
     17 S         142.8757  137.2516  156.2306 S.O2    1  UNL1        0.0112
     18 O         141.5096  136.6688  156.4403 O.2     1  UNL1       -0.1685
     19 O         144.2418  137.8345  156.0210 O.2     1  UNL1       -0.1685
     20 C         143.0931  136.3251  155.0712 C.3     1  UNL1        0.1878
     21 C         143.0403  134.8403  155.2776 C.3     1  UNL1        0.1680
     22 C         143.6442  133.8430  157.5994 C.3     1  UNL1        0.1742
     23 O         144.0290  134.1740  156.1878 O.3     1  UNL1       -0.3492
     24 C         140.6272  140.9725  164.3758 C.ar    1  UNL1        0.0503
     25 C         140.9417  139.6786  165.0664 C.ar    1  UNL1        0.0144
     26 C         140.9259  139.6049  166.5645 C.ar    1  UNL1       -0.0002
     27 C         140.5955  140.8250  167.3720 C.ar    1  UNL1        0.0182
     28 C         140.2810  142.1189  166.6814 C.ar    1  UNL1       -0.0002
     29 C         140.2968  142.1926  165.1833 C.ar    1  UNL1        0.0144
     30 C         140.5797  140.7513  168.8701 C.3     1  UNL1        0.2827
     31 O         139.3690  139.8676  168.8139 O.3     1  UNL1       -0.3692
     32 H         139.1176  139.7221  167.8884 H       1  UNL1        0.2112
     33 C         140.5639  140.6776  170.3682 C.3     1  UNL1        0.4311
     34 F         140.5480  140.6039  171.8663 F       1  UNL1       -0.1669
     35 F         141.1392  139.2937  170.3062 F       1  UNL1       -0.1669
     36 F         140.2255  141.4834  170.5124 F       1  UNL1       -0.1669
     37 C         141.7905  141.6350  168.9264 C.3     1  UNL1        0.4311
     38 F         143.0012  142.5187  168.9827 F       1  UNL1       -0.1669
     39 F         142.3951  140.9966  168.8196 F       1  UNL1       -0.1669
     40 F         141.2267  143.0110  169.1236 F       1  UNL1       -0.1669
@<TRIPOS>BOND
     1    22    23    1
     2    23    21    1
     3    21    20    1
     4    20    17    1
     5    17    18    2
     6    17    19    2
     7    17     5    1
     8     5     6   ar
     9     6     7   ar
    10     7     8   ar
    11     8     9   ar
    12     9    10   ar
    13     9    11    1
    14    11    12    1
    15    12    13   am
    16    13    14    1
    17    13    15    2
    18    12    16    1
    19    16     1    1
    20     1     2    2
    21     1     3   am
    22     3    24    1
    23    24    25   ar
    24    25    26   ar
    25    26    27   ar
    26    27    30    1
    27    30    31    1
    28    30    33    1
    29    33    34    1
    30    33    35    1
    31    33    36    1
    32    30    37    1
    33    37    38    1
    34    37    39    1
    35    37    40    1
    36    27    28   ar
    37    28    29   ar
    38    10     5   ar
    39    29    24   ar
    40    16     8    1
    41     3     4    1
    42    31    32    1
@<TRIPOS>MOLECULE
*****
 40 42 0 0 0
SMALL
GASTEIGER

@<TRIPOS>ATOM
      1 C         139.6031  142.2174  158.4600 C.2     1  UNL1        0.2485
      2 O         140.8544  141.4658  158.1152 O.2     1  UNL1       -0.2726
      3 N         139.0951  142.2207  159.8714 N.am    1  UNL1       -0.2823
      4 H         138.2738  142.7140  160.0978 H       1  UNL1        0.1549
      5 C         139.4676  146.9099  155.3618 C.ar    1  UNL1        0.1055
      6 C         140.4840  146.5422  156.4019 C.ar    1  UNL1        0.0181
      7 C         140.3665  145.2408  157.1383 C.ar    1  UNL1       -0.0011
      8 C         139.2327  144.3069  156.8346 C.ar    1  UNL1        0.0022
      9 C         138.2163  144.6745  155.7946 C.ar    1  UNL1       -0.0030
     10 C         138.3338  145.9760  155.0582 C.ar    1  UNL1        0.0155
     11 C         137.2151  143.5606  155.7107 C.3     1  UNL1        0.1206
     12 N         137.6127  142.5046  156.6990 N.am    1  UNL1       -0.2655
     13 C         136.8903  141.2140  156.9489 C.2     1  UNL1        0.2269
     14 C         135.6488  140.8870  156.1731 C.3     1  UNL1        0.0949
     15 O         137.4093  140.2504  157.9746 O.2     1  UNL1       -0.2748
     16 C         138.8596  142.9659  157.3936 C.3     1  UNL1        0.1750
     17 S         139.5850  148.2114  154.6254 S.O2    1  UNL1        0.0112
     18 O         138.6447  148.8500  155.6041 O.2     1  UNL1       -0.1685
     19 O         140.5254  147.5727  153.6466 O.2     1  UNL1       -0.1685
     20 C         139.7025  149.5128  153.8890 C.3     1  UNL1        0.1878
     21 C         140.6697  150.5574  154.3616 C.3     1  UNL1        0.1680
     22 C         138.7352  152.2119  154.8817 C.3     1  UNL1        0.1742
     23 O         140.1646  151.7899  155.0514 O.3     1  UNL1       -0.3492
     24 C         139.8385  141.4723  160.9378 C.ar    1  UNL1        0.0503
     25 C         141.1164  142.0285  161.4923 C.ar    1  UNL1        0.0144
     26 C         141.8598  141.2801  162.5587 C.ar    1  UNL1       -0.0002
     27 C         141.3254  139.9754  163.0706 C.ar    1  UNL1        0.0182
     28 C         140.0474  139.4192  162.5162 C.ar    1  UNL1       -0.0002
     29 C         139.3040  140.1676  161.4498 C.ar    1  UNL1        0.0144
     30 C         142.0688  139.2270  164.1370 C.3     1  UNL1        0.2827
     31 O         141.3401  140.0060  165.1917 O.3     1  UNL1       -0.3692
     32 H         140.7298  140.6302  164.7688 H       1  UNL1        0.2112
     33 C         142.8122  138.4786  165.2034 C.3     1  UNL1        0.4311
     34 F         143.5556  137.7302  166.2698 F       1  UNL1       -0.1669
     35 F         143.6759  139.6809  165.4451 F       1  UNL1       -0.1669
     36 F         142.3595  137.7201  165.1385 F       1  UNL1       -0.1669
     37 C         142.7975  138.4481  163.0824 C.3     1  UNL1        0.4311
     38 F         143.5261  137.6692  162.0277 F       1  UNL1       -0.1669
     39 F         143.5164  138.9641  163.0443 F       1  UNL1       -0.1669
     40 F         141.8705  137.3125  162.7645 F       1  UNL1       -0.1669
@<TRIPOS>BOND
     1    22    23    1
     2    23    21    1
     3    21    20    1
     4    20    17    1
     5    17    18    2
     6    17    19    2
     7    17     5    1
     8     5     6   ar
     9     6     7   ar
    10     7     8   ar
    11     8     9   ar
    12     9    10   ar
    13     9    11    1
    14    11    12    1
    15    12    13   am
    16    13    14    1
    17    13    15    2
    18    12    16    1
    19    16     1    1
    20     1     2    2
    21     1     3   am
    22     3    24    1
    23    24    25   ar
    24    25    26   ar
    25    26    27   ar
    26    27    30    1
    27    30    31    1
    28    30    33    1
    29    33    34    1
    30    33    35    1
    31    33    36    1
    32    30    37    1
    33    37    38    1
    34    37    39    1
    35    37    40    1
    36    27    28   ar
    37    28    29   ar
    38    10     5   ar
    39    29    24   ar
    40    16     8    1
    41     3     4    1
    42    31    32    1
@<TRIPOS>MOLECULE
*****
 40 42 0 0 0
SMALL
GASTEIGER

@<TRIPOS>ATOM
      1 C         140.9643  141.4437  162.2282 C.2     1  UNL1        0.2485
      2 O         139.8283  140.6415  162.7902 O.2     1  UNL1       -0.2726
      3 N         141.8965  142.1720  163.1504 N.am    1  UNL1       -0.2823
      4 H         142.6421  142.6985  162.7815 H       1  UNL1        0.1549
      5 C         142.5238  138.5882  157.6401 C.ar    1  UNL1        0.1055
      6 C         142.4643  138.0743  159.0480 C.ar    1  UNL1        0.0181
      7 C         142.0221  138.9800  160.1590 C.ar    1  UNL1       -0.0011
      8 C         141.6394  140.3996  159.8620 C.ar    1  UNL1        0.0022
      9 C         141.6989  140.9135  158.4540 C.ar    1  UNL1       -0.0030
     10 C         142.1411  140.0078  157.3431 C.ar    1  UNL1        0.0155
     11 C         141.2644  142.3492  158.4658 C.3     1  UNL1        0.1206
     12 N         140.9363  142.7225  159.8811 N.am    1  UNL1       -0.2655
     13 C         140.4600  144.0651  160.3510 C.2     1  UNL1        0.2269
     14 C         140.2735  145.1815  159.3666 C.3     1  UNL1        0.0949
     15 O         140.1704  144.2913  161.8052 O.2     1  UNL1       -0.2748
     16 C         141.1681  141.5176  160.7439 C.3     1  UNL1        0.1750
     17 S         142.9660  137.6825  156.5292 S.O2    1  UNL1        0.0112
     18 O         141.7236  136.8605  156.7048 O.2     1  UNL1       -0.1685
     19 O         144.2084  138.5045  156.3536 O.2     1  UNL1       -0.1685
     20 C         143.4082  136.7768  155.4183 C.3     1  UNL1        0.1878
     21 C         143.1147  135.3074  155.4867 C.3     1  UNL1        0.1680
     22 C         143.5707  133.7860  157.5428 C.3     1  UNL1        0.1742
     23 O         144.0280  134.3950  156.2505 O.3     1  UNL1       -0.3492
     24 C         141.6927  142.0981  164.6346 C.ar    1  UNL1        0.0503
     25 C         142.4857  141.1225  165.4529 C.ar    1  UNL1        0.0144
     26 C         142.2819  141.0486  166.9371 C.ar    1  UNL1       -0.0002
     27 C         141.2852  141.9502  167.6032 C.ar    1  UNL1        0.0182
     28 C         140.4923  142.9258  166.7850 C.ar    1  UNL1       -0.0002
     29 C         140.6961  142.9997  165.3007 C.ar    1  UNL1        0.0144
     30 C         141.0814  141.8763  169.0874 C.3     1  UNL1        0.2827
     31 O         142.0629  142.9945  169.2779 O.3     1  UNL1       -0.3692
     32 H         142.3988  143.2806  168.4140 H       1  UNL1        0.2112
     33 C         140.8777  141.8024  170.5717 C.3     1  UNL1        0.4311
     34 F         140.6739  141.7284  172.0559 F       1  UNL1       -0.1669
     35 F         142.2992  141.3559  170.7446 F       1  UNL1       -0.1669
     36 F         140.0298  142.0587  170.5771 F       1  UNL1       -0.1669
     37 C         140.0999  140.7581  168.8970 C.3     1  UNL1        0.4311
     38 F         139.1184  139.6399  168.7066 F       1  UNL1       -0.1669
     39 F         139.4418  141.2478  168.5630 F       1  UNL1       -0.1669
     40 F         140.8350  139.5435  169.3812 F       1  UNL1       -0.1669
@<TRIPOS>BOND
     1    22    23    1
     2    23    21    1
     3    21    20    1
     4    20    17    1
     5    17    18    2
     6    17    19    2
     7    17     5    1
     8     5     6   ar
     9     6     7   ar
    10     7     8   ar
    11     8     9   ar
    12     9    10   ar
    13     9    11    1
    14    11    12    1
    15    12    13   am
    16    13    14    1
    17    13    15    2
    18    12    16    1
    19    16     1    1
    20     1     2    2
    21     1     3   am
    22     3    24    1
    23    24    25   ar
    24    25    26   ar
    25    26    27   ar
    26    27    30    1
    27    30    31    1
    28    30    33    1
    29    33    34    1
    30    33    35    1
    31    33    36    1
    32    30    37    1
    33    37    38    1
    34    37    39    1
    35    37    40    1
    36    27    28   ar
    37    28    29   ar
    38    10     5   ar
    39    29    24   ar
    40    16     8    1
    41     3     4    1
    42    31    32    1
@<TRIPOS>MOLECULE
*****
 40 42 0 0 0
SMALL
GASTEIGER

@<TRIPOS>ATOM
      1 C         141.8253  140.6896  161.9233 C.2     1  UNL1        0.2485
      2 O         140.5377  140.6346  161.1558 O.2     1  UNL1       -0.2726
      3 N         143.0513  140.0171  161.3804 N.am    1  UNL1       -0.2823
      4 H         143.8964  140.0531  161.8841 H       1  UNL1        0.1549
      5 C         140.2186  140.6249  167.3132 C.ar    1  UNL1        0.1055
      6 C         139.9015  139.6020  166.2629 C.ar    1  UNL1        0.0181
      7 C         140.4154  139.7784  164.8648 C.ar    1  UNL1       -0.0011
      8 C         141.2464  140.9777  164.5169 C.ar    1  UNL1        0.0022
      9 C         141.5635  142.0006  165.5671 C.ar    1  UNL1       -0.0030
     10 C         141.0496  141.8242  166.9653 C.ar    1  UNL1        0.0155
     11 C         142.4001  143.0721  164.9330 C.3     1  UNL1        0.1206
     12 N         142.5999  142.7114  163.4908 N.am    1  UNL1       -0.2655
     13 C         143.3765  143.5057  162.4827 C.2     1  UNL1        0.2269
     14 C         144.0394  144.7887  162.8882 C.3     1  UNL1        0.0949
     15 O         143.4901  143.0169  161.0691 O.2     1  UNL1       -0.2748
     16 C         141.8869  141.4170  163.2337 C.3     1  UNL1        0.1750
     17 S         139.7047  140.4485  168.7113 S.O2    1  UNL1        0.0112
     18 O         138.7494  139.3981  168.2276 O.2     1  UNL1       -0.1685
     19 O         140.6600  141.4989  169.1950 O.2     1  UNL1       -0.1685
     20 C         139.1908  140.2721  170.1094 C.3     1  UNL1        0.1878
     21 C         137.7583  139.8912  170.3395 C.3     1  UNL1        0.1680
     22 C         135.9901  138.3790  171.4957 C.3     1  UNL1        0.1742
     23 O         137.4216  138.7723  171.2800 O.3     1  UNL1       -0.3492
     24 C         142.9896  139.2896  160.0700 C.ar    1  UNL1        0.0503
     25 C         142.7292  137.8126  160.0437 C.ar    1  UNL1        0.0144
     26 C         142.6675  137.0852  158.7333 C.ar    1  UNL1       -0.0002
     27 C         142.8663  137.8347  157.4493 C.ar    1  UNL1        0.0182
     28 C         143.1267  139.3117  157.4757 C.ar    1  UNL1       -0.0002
     29 C         143.1883  140.0391  158.7860 C.ar    1  UNL1        0.0144
     30 C         142.8046  137.1073  156.1389 C.3     1  UNL1        0.2827
     31 O         144.2910  137.2457  155.9922 O.3     1  UNL1       -0.3692
     32 H         144.6490  137.7190  156.7595 H       1  UNL1        0.2112
     33 C         142.7429  136.3799  154.8286 C.3     1  UNL1        0.4311
     34 F         142.6813  135.6524  153.5182 F       1  UNL1       -0.1669
     35 F         142.4769  137.6758  154.1217 F       1  UNL1       -0.1669
     36 F         142.8944  135.5679  155.1486 F       1  UNL1       -0.1669
     37 C         141.3182  136.9689  156.2857 C.3     1  UNL1        0.4311
     38 F         139.8319  136.8305  156.4325 F       1  UNL1       -0.1669
     39 F         141.3106  136.1101  156.5024 F       1  UNL1       -0.1669
     40 F         140.7940  138.3406  155.9799 F       1  UNL1       -0.1669
@<TRIPOS>BOND
     1    22    23    1
     2    23    21    1
     3    21    20    1
     4    20    17    1
     5    17    18    2
     6    17    19    2
     7    17     5    1
     8     5     6   ar
     9     6     7   ar
    10     7     8   ar
    11     8     9   ar
    12     9    10   ar
    13     9    11    1
    14    11    12    1
    15    12    13   am
    16    13    14    1
    17    13    15    2
    18    12    16    1
    19    16     1    1
    20     1     2    2
    21     1     3   am
    22     3    24    1
    23    24    25   ar
    24    25    26   ar
    25    26    27   ar
    26    27    30    1
    27    30    31    1
    28    30    33    1
    29    33    34    1
    30    33    35    1
    31    33    36    1
    32    30    37    1
    33    37    38    1
    34    37    39    1
    35    37    40    1
    36    27    28   ar
    37    28    29   ar
    38    10     5   ar
    39    29    24   ar
    40    16     8    1
    41     3     4    1
    42    31    32    1
