@<TRIPOS>MOLECULE
*****
 37 41 0 0 0
SMALL
GASTEIGER

@<TRIPOS>ATOM
      1 C         141.5925  141.7881  162.2140 C.3     1  UNL1        0.2309
      2 N         140.7623  141.7571  160.9651 N.2     1  UNL1       -0.0614
      3 C         141.1091  140.5089  160.2089 C.2     1  UNL1        0.3157
      4 N         140.5155  140.0769  158.9009 N.pl3   1  UNL1       -0.2464
      5 C         142.1537  139.7686  160.9905 C.ar    1  UNL1        0.1094
      6 C         142.8713  138.4767  160.7338 C.ar    1  UNL1        0.1470
      7 F         142.5725  137.6861  159.4946 F       1  UNL1       -0.2039
      8 C         143.8878  137.9754  161.7164 C.ar    1  UNL1        0.0299
      9 C         144.1866  138.7660  162.9556 C.ar    1  UNL1        0.0021
     10 C         143.4689  140.0579  163.2123 C.ar    1  UNL1        0.0008
     11 C         142.4524  140.5592  162.2297 C.ar    1  UNL1        0.0390
     12 H         139.8320  140.6337  158.4627 H       1  UNL1        0.2884
     13 H         140.8095  139.2366  158.4805 H       1  UNL1        0.2884
     14 C         142.4352  141.7894  166.0922 C.ar    1  UNL1        0.0014
     15 C         143.6332  142.6916  166.1217 C.ar    1  UNL1        0.0000
     16 C         144.1510  143.2926  164.8486 C.ar    1  UNL1       -0.0002
     17 C         143.4708  142.9915  163.5461 C.ar    1  UNL1        0.0004
     18 C         142.2727  142.0893  163.5165 C.ar    1  UNL1        0.0297
     19 C         141.7549  141.4882  164.7896 C.ar    1  UNL1        0.0004
     20 C         142.1450  139.4629  169.2942 C.ar    1  UNL1        0.0608
     21 C         140.8818  139.9861  169.9111 C.ar    1  UNL1        0.1071
     22 N         140.1364  141.1103  169.2551 N.ar    1  UNL1       -0.2417
     23 C         140.6542  141.7115  167.9821 C.ar    1  UNL1        0.0989
     24 C         141.9173  141.1883  167.3652 C.ar    1  UNL1        0.0198
     25 C         142.6628  140.0640  168.0212 C.ar    1  UNL1        0.0113
     26 C         144.3813  136.0901  171.2622 C.3     1  UNL1        0.0903
     27 C         143.6359  137.2144  170.6062 C.1     1  UNL1       -0.0853
     28 C         142.8904  138.3386  169.9502 C.1     1  UNL1       -0.0628
     29 C         140.8748  143.0801  162.4706 C.ar    1  UNL1        0.0326
     30 C         141.1427  144.2725  161.6009 C.ar    1  UNL1        0.0210
     31 C         140.4250  145.5644  161.8575 C.ar    1  UNL1        0.0985
     32 N         139.4394  145.6639  162.9838 N.ar    1  UNL1       -0.2426
     33 C         139.1715  144.4715  163.8535 C.ar    1  UNL1        0.1248
     34 C         139.8892  143.1796  163.5970 C.ar    1  UNL1        0.0207
     35 C         138.1859  144.5711  164.9799 C.3     1  UNL1        0.3581
     36 F         138.4349  145.5225  166.1125 F       1  UNL1       -0.1915
     37 F         136.9512  143.7193  164.9736 F       1  UNL1       -0.1915
@<TRIPOS>BOND
     1    26    27    1
     2    27    28    3
     3    28    20    1
     4    20    21   ar
     5    21    22   ar
     6    22    23   ar
     7    23    24   ar
     8    24    14    1
     9    14    15   ar
    10    15    16   ar
    11    16    17   ar
    12    17    18   ar
    13    18     1    1
    14     1    29    1
    15    29    30   ar
    16    30    31   ar
    17    31    32   ar
    18    32    33   ar
    19    33    35    1
    20    35    36    1
    21    35    37    1
    22    33    34   ar
    23     1     2    1
    24     2     3    2
    25     3     4    1
    26     3     5    1
    27     5     6   ar
    28     6     7    1
    29     6     8   ar
    30     8     9   ar
    31     9    10   ar
    32    10    11   ar
    33    18    19   ar
    34    24    25   ar
    35    25    20   ar
    36    19    14   ar
    37    11     1    1
    38    34    29   ar
    39    11     5   ar
    40     4    12    1
    41     4    13    1
@<TRIPOS>MOLECULE
*****
 37 41 0 0 0
SMALL
GASTEIGER

@<TRIPOS>ATOM
      1 C         140.2589  141.6206  163.0485 C.3     1  UNL1        0.2309
      2 N         139.2941  141.3946  161.9224 N.2     1  UNL1       -0.0614
      3 C         139.1249  142.6925  161.1896 C.2     1  UNL1        0.3157
      4 N         138.2492  142.9220  159.9936 N.pl3   1  UNL1       -0.2464
      5 C         139.9850  143.7205  161.8629 C.ar    1  UNL1        0.1094
      6 C         140.2206  145.1743  161.5782 C.ar    1  UNL1        0.1470
      7 F         139.5198  145.8367  160.4293 F       1  UNL1       -0.2039
      8 C         141.1571  145.9655  162.4424 C.ar    1  UNL1        0.0299
      9 C         141.8579  145.3031  163.5913 C.ar    1  UNL1        0.0021
     10 C         141.6224  143.8493  163.8760 C.ar    1  UNL1        0.0008
     11 C         140.6859  143.0581  163.0118 C.ar    1  UNL1        0.0390
     12 H         137.7192  142.1802  159.6220 H       1  UNL1        0.2884
     13 H         138.2046  143.8144  159.5802 H       1  UNL1        0.2884
     14 C         141.5349  141.6035  166.8065 C.ar    1  UNL1        0.0014
     15 C         143.0055  141.3866  166.6055 C.ar    1  UNL1        0.0000
     16 C         143.5605  141.2478  165.2189 C.ar    1  UNL1       -0.0002
     17 C         142.6450  141.3258  164.0333 C.ar    1  UNL1        0.0004
     18 C         141.1744  141.5426  164.2342 C.ar    1  UNL1        0.0297
     19 C         140.6193  141.6814  165.6208 C.ar    1  UNL1        0.0004
     20 C         139.2791  141.0176  170.0186 C.ar    1  UNL1        0.0608
     21 C         139.8693  142.0198  170.9660 C.ar    1  UNL1        0.1071
     22 N         141.0146  142.8832  170.5269 N.ar    1  UNL1       -0.2417
     23 C         141.5698  142.7444  169.1403 C.ar    1  UNL1        0.0989
     24 C         140.9797  141.7423  168.1930 C.ar    1  UNL1        0.0198
     25 C         139.8343  140.8789  168.6322 C.ar    1  UNL1        0.0113
     26 C         135.8432  138.4276  171.3362 C.3     1  UNL1        0.0903
     27 C         136.9885  139.2909  170.8970 C.1     1  UNL1       -0.0853
     28 C         138.1338  140.1543  170.4578 C.1     1  UNL1       -0.0628
     29 C         140.0233  140.1668  163.3332 C.ar    1  UNL1        0.0326
     30 C         140.5941  139.1218  162.4209 C.ar    1  UNL1        0.0210
     31 C         140.3585  137.6680  162.7055 C.ar    1  UNL1        0.0985
     32 N         139.5521  137.2592  163.9024 N.ar    1  UNL1       -0.2426
     33 C         138.9812  138.3042  164.8147 C.ar    1  UNL1        0.1248
     34 C         139.2168  139.7580  164.5301 C.ar    1  UNL1        0.0207
     35 C         138.1748  137.8953  166.0116 C.3     1  UNL1        0.3581
     36 F         137.6691  138.9359  166.9662 F       1  UNL1       -0.1915
     37 F         137.8740  136.4459  166.2537 F       1  UNL1       -0.1915
@<TRIPOS>BOND
     1    26    27    1
     2    27    28    3
     3    28    20    1
     4    20    21   ar
     5    21    22   ar
     6    22    23   ar
     7    23    24   ar
     8    24    14    1
     9    14    15   ar
    10    15    16   ar
    11    16    17   ar
    12    17    18   ar
    13    18     1    1
    14     1    29    1
    15    29    30   ar
    16    30    31   ar
    17    31    32   ar
    18    32    33   ar
    19    33    35    1
    20    35    36    1
    21    35    37    1
    22    33    34   ar
    23     1     2    1
    24     2     3    2
    25     3     4    1
    26     3     5    1
    27     5     6   ar
    28     6     7    1
    29     6     8   ar
    30     8     9   ar
    31     9    10   ar
    32    10    11   ar
    33    18    19   ar
    34    24    25   ar
    35    25    20   ar
    36    19    14   ar
    37    11     1    1
    38    34    29   ar
    39    11     5   ar
    40     4    12    1
    41     4    13    1
@<TRIPOS>MOLECULE
*****
 37 41 0 0 0
SMALL
GASTEIGER

@<TRIPOS>ATOM
      1 C         140.1636  141.5058  163.6374 C.3     1  UNL1        0.2309
      2 N         138.8452  141.8030  162.9868 N.2     1  UNL1       -0.0614
      3 C         138.8345  143.2528  162.6021 C.2     1  UNL1        0.3157
      4 N         137.7094  143.9766  161.9237 N.pl3   1  UNL1       -0.2464
      5 C         140.1463  143.8516  163.0151 C.ar    1  UNL1        0.1094
      6 C         140.6989  145.2406  162.8911 C.ar    1  UNL1        0.1470
      7 F         139.8774  146.3203  162.2512 F       1  UNL1       -0.2039
      8 C         142.0730  145.5498  163.4069 C.ar    1  UNL1        0.0299
      9 C         142.8945  144.4702  164.0468 C.ar    1  UNL1        0.0021
     10 C         142.3419  143.0812  164.1708 C.ar    1  UNL1        0.0008
     11 C         140.9678  142.7720  163.6549 C.ar    1  UNL1        0.0390
     12 H         136.8832  143.4945  161.6911 H       1  UNL1        0.2884
     13 H         137.7973  144.9339  161.7110 H       1  UNL1        0.2884
     14 C         142.5929  140.1825  166.4831 C.ar    1  UNL1        0.0014
     15 C         143.7725  139.7432  165.6672 C.ar    1  UNL1        0.0000
     16 C         143.7491  139.8914  164.1747 C.ar    1  UNL1       -0.0002
     17 C         142.5462  140.4790  163.4981 C.ar    1  UNL1        0.0004
     18 C         141.3665  140.9183  164.3140 C.ar    1  UNL1        0.0297
     19 C         141.3899  140.7701  165.8065 C.ar    1  UNL1        0.0004
     20 C         143.1530  138.6202  170.0880 C.ar    1  UNL1        0.0608
     21 C         142.6629  139.7377  170.9604 C.ar    1  UNL1        0.1071
     22 N         142.1495  141.0034  170.3404 N.ar    1  UNL1       -0.2417
     23 C         142.1262  141.1517  168.8480 C.ar    1  UNL1        0.0989
     24 C         142.6162  140.0343  167.9756 C.ar    1  UNL1        0.0198
     25 C         143.1297  138.7685  168.5956 C.ar    1  UNL1        0.0113
     26 C         144.6931  134.8230  171.9479 C.3     1  UNL1        0.0903
     27 C         144.1797  136.0887  171.3279 C.1     1  UNL1       -0.0853
     28 C         143.6664  137.3545  170.7079 C.1     1  UNL1       -0.0628
     29 C         139.6110  140.1168  163.7614 C.ar    1  UNL1        0.0326
     30 C         139.6384  139.1907  162.5818 C.ar    1  UNL1        0.0210
     31 C         139.0858  137.8017  162.7057 C.ar    1  UNL1        0.0985
     32 N         138.5057  137.3389  164.0093 N.ar    1  UNL1       -0.2426
     33 C         138.4783  138.2651  165.1889 C.ar    1  UNL1        0.1248
     34 C         139.0309  139.6540  165.0650 C.ar    1  UNL1        0.0207
     35 C         137.8981  137.8022  166.4925 C.3     1  UNL1        0.3581
     36 F         137.7265  138.7723  167.6236 F       1  UNL1       -0.1915
     37 F         137.4897  136.3692  166.6649 F       1  UNL1       -0.1915
@<TRIPOS>BOND
     1    26    27    1
     2    27    28    3
     3    28    20    1
     4    20    21   ar
     5    21    22   ar
     6    22    23   ar
     7    23    24   ar
     8    24    14    1
     9    14    15   ar
    10    15    16   ar
    11    16    17   ar
    12    17    18   ar
    13    18     1    1
    14     1    29    1
    15    29    30   ar
    16    30    31   ar
    17    31    32   ar
    18    32    33   ar
    19    33    35    1
    20    35    36    1
    21    35    37    1
    22    33    34   ar
    23     1     2    1
    24     2     3    2
    25     3     4    1
    26     3     5    1
    27     5     6   ar
    28     6     7    1
    29     6     8   ar
    30     8     9   ar
    31     9    10   ar
    32    10    11   ar
    33    18    19   ar
    34    24    25   ar
    35    25    20   ar
    36    19    14   ar
    37    11     1    1
    38    34    29   ar
    39    11     5   ar
    40     4    12    1
    41     4    13    1
@<TRIPOS>MOLECULE
*****
 37 41 0 0 0
SMALL
GASTEIGER

@<TRIPOS>ATOM
      1 C         141.8886  140.3178  163.0859 C.3     1  UNL1        0.2309
      2 N         141.8248  140.9254  161.7159 N.2     1  UNL1       -0.0614
      3 C         140.6736  140.3005  160.9850 C.2     1  UNL1        0.3157
      4 N         140.2451  140.6143  159.5822 N.pl3   1  UNL1       -0.2464
      5 C         140.0259  139.3068  161.9032 C.ar    1  UNL1        0.1094
      6 C         138.8495  138.3936  161.7247 C.ar    1  UNL1        0.1470
      7 F         138.0985  138.3829  160.4263 F       1  UNL1       -0.2039
      8 C         138.4240  137.4910  162.8447 C.ar    1  UNL1        0.0299
      9 C         139.1750  137.5017  164.1431 C.ar    1  UNL1        0.0021
     10 C         140.3514  138.4149  164.3216 C.ar    1  UNL1        0.0008
     11 C         140.7769  139.3175  163.2016 C.ar    1  UNL1        0.0390
     12 H         140.7364  141.2859  159.0560 H       1  UNL1        0.2884
     13 H         139.4726  140.1487  159.1876 H       1  UNL1        0.2884
     14 C         141.7628  140.1012  167.0466 C.ar    1  UNL1        0.0014
     15 C         142.8182  139.0678  167.3077 C.ar    1  UNL1        0.0000
     16 C         143.5639  138.4511  166.1615 C.ar    1  UNL1       -0.0002
     17 C         143.2540  138.8678  164.7542 C.ar    1  UNL1        0.0004
     18 C         142.1985  139.9012  164.4931 C.ar    1  UNL1        0.0297
     19 C         141.4529  140.5179  165.6393 C.ar    1  UNL1        0.0004
     20 C         139.0856  140.6297  169.9281 C.ar    1  UNL1        0.0608
     21 C         139.5257  141.9513  170.4850 C.ar    1  UNL1        0.1071
     22 N         140.7114  142.6560  169.8957 N.ar    1  UNL1       -0.2417
     23 C         141.4572  142.0394  168.7496 C.ar    1  UNL1        0.0989
     24 C         141.0171  140.7179  168.1928 C.ar    1  UNL1        0.0198
     25 C         139.8313  140.0131  168.7821 C.ar    1  UNL1        0.0113
     26 C         135.5283  138.5155  171.6960 C.3     1  UNL1        0.0903
     27 C         136.7141  139.2202  171.1067 C.1     1  UNL1       -0.0853
     28 C         137.8999  139.9249  170.5174 C.1     1  UNL1       -0.0628
     29 C         143.0652  141.2311  163.2643 C.ar    1  UNL1        0.0326
     30 C         144.4519  140.7305  162.9880 C.ar    1  UNL1        0.0210
     31 C         145.6284  141.6437  163.1664 C.ar    1  UNL1        0.0985
     32 N         145.4182  143.0575  163.6211 N.ar    1  UNL1       -0.2426
     33 C         144.0314  143.5581  163.8975 C.ar    1  UNL1        0.1248
     34 C         142.8550  142.6449  163.7191 C.ar    1  UNL1        0.0207
     35 C         143.8213  144.9720  164.3523 C.3     1  UNL1        0.3581
     36 F         142.7299  145.8014  163.7433 F       1  UNL1       -0.1915
     37 F         144.7025  145.5565  165.4162 F       1  UNL1       -0.1915
@<TRIPOS>BOND
     1    26    27    1
     2    27    28    3
     3    28    20    1
     4    20    21   ar
     5    21    22   ar
     6    22    23   ar
     7    23    24   ar
     8    24    14    1
     9    14    15   ar
    10    15    16   ar
    11    16    17   ar
    12    17    18   ar
    13    18     1    1
    14     1    29    1
    15    29    30   ar
    16    30    31   ar
    17    31    32   ar
    18    32    33   ar
    19    33    35    1
    20    35    36    1
    21    35    37    1
    22    33    34   ar
    23     1     2    1
    24     2     3    2
    25     3     4    1
    26     3     5    1
    27     5     6   ar
    28     6     7    1
    29     6     8   ar
    30     8     9   ar
    31     9    10   ar
    32    10    11   ar
    33    18    19   ar
    34    24    25   ar
    35    25    20   ar
    36    19    14   ar
    37    11     1    1
    38    34    29   ar
    39    11     5   ar
    40     4    12    1
    41     4    13    1
@<TRIPOS>MOLECULE
*****
 37 41 0 0 0
SMALL
GASTEIGER

@<TRIPOS>ATOM
      1 C         141.6138  140.3595  165.5078 C.3     1  UNL1        0.2309
      2 N         142.1819  141.2356  166.5847 N.2     1  UNL1       -0.0614
      3 C         141.2577  141.1780  167.7647 C.2     1  UNL1        0.3157
      4 N         141.4406  141.9046  169.0642 N.pl3   1  UNL1       -0.2464
      5 C         140.1184  140.2663  167.4172 C.ar    1  UNL1        0.1094
      6 C         138.9090  139.8314  168.1906 C.ar    1  UNL1        0.1470
      7 F         138.6890  140.3373  169.5855 F       1  UNL1       -0.2039
      8 C         137.9198  138.8906  167.5692 C.ar    1  UNL1        0.0299
      9 C         138.1399  138.3848  166.1743 C.ar    1  UNL1        0.0021
     10 C         139.3492  138.8197  165.4009 C.ar    1  UNL1        0.0008
     11 C         140.3385  139.7604  166.0223 C.ar    1  UNL1        0.0390
     12 H         142.2256  142.4835  169.1982 H       1  UNL1        0.2884
     13 H         140.7758  141.8025  169.7831 H       1  UNL1        0.2884
     14 C         140.2809  139.4503  161.8820 C.ar    1  UNL1        0.0014
     15 C         140.6680  138.0039  161.7921 C.ar    1  UNL1        0.0000
     16 C         141.3705  137.3427  162.9408 C.ar    1  UNL1       -0.0002
     17 C         141.6857  138.1279  164.1793 C.ar    1  UNL1        0.0004
     18 C         141.2986  139.5743  164.2693 C.ar    1  UNL1        0.0297
     19 C         140.5961  140.2355  163.1206 C.ar    1  UNL1        0.0004
     20 C         139.3743  142.0854  159.0564 C.ar    1  UNL1        0.0608
     21 C         138.1738  141.4342  158.4361 C.ar    1  UNL1        0.1071
     22 N         137.6756  140.1217  158.9645 N.ar    1  UNL1       -0.2417
     23 C         138.3780  139.4603  160.1131 C.ar    1  UNL1        0.0989
     24 C         139.5784  140.1115  160.7333 C.ar    1  UNL1        0.0198
     25 C         140.0766  141.4241  160.2050 C.ar    1  UNL1        0.0113
     26 C         140.8687  146.0229  157.4713 C.3     1  UNL1        0.0903
     27 C         140.3706  144.7104  157.9997 C.1     1  UNL1       -0.0853
     28 C         139.8725  143.3979  158.5281 C.1     1  UNL1       -0.0628
     29 C         142.8233  140.7945  164.7344 C.ar    1  UNL1        0.0326
     30 C         144.0883  139.9917  164.8066 C.ar    1  UNL1        0.0210
     31 C         145.2977  140.4266  164.0332 C.ar    1  UNL1        0.0985
     32 N         145.2421  141.6643  163.1876 N.ar    1  UNL1       -0.2426
     33 C         143.9770  142.4670  163.1154 C.ar    1  UNL1        0.1248
     34 C         142.7676  142.0321  163.8888 C.ar    1  UNL1        0.0207
     35 C         143.9214  143.7048  162.2698 C.3     1  UNL1        0.3581
     36 F         144.4220  145.0091  162.8156 F       1  UNL1       -0.1915
     37 F         143.3652  143.6380  160.8783 F       1  UNL1       -0.1915
@<TRIPOS>BOND
     1    26    27    1
     2    27    28    3
     3    28    20    1
     4    20    21   ar
     5    21    22   ar
     6    22    23   ar
     7    23    24   ar
     8    24    14    1
     9    14    15   ar
    10    15    16   ar
    11    16    17   ar
    12    17    18   ar
    13    18     1    1
    14     1    29    1
    15    29    30   ar
    16    30    31   ar
    17    31    32   ar
    18    32    33   ar
    19    33    35    1
    20    35    36    1
    21    35    37    1
    22    33    34   ar
    23     1     2    1
    24     2     3    2
    25     3     4    1
    26     3     5    1
    27     5     6   ar
    28     6     7    1
    29     6     8   ar
    30     8     9   ar
    31     9    10   ar
    32    10    11   ar
    33    18    19   ar
    34    24    25   ar
    35    25    20   ar
    36    19    14   ar
    37    11     1    1
    38    34    29   ar
    39    11     5   ar
    40     4    12    1
    41     4    13    1
@<TRIPOS>MOLECULE
*****
 37 41 0 0 0
SMALL
GASTEIGER

@<TRIPOS>ATOM
      1 C         139.5029  139.5477  165.4328 C.3     1  UNL1        0.2309
      2 N         138.4726  138.4739  165.6207 N.2     1  UNL1       -0.0614
      3 C         138.0068  138.5228  167.0457 C.2     1  UNL1        0.3157
      4 N         136.9790  137.6252  167.6686 N.pl3   1  UNL1       -0.2464
      5 C         138.7492  139.6268  167.7385 C.ar    1  UNL1        0.1094
      6 C         138.7028  140.1371  169.1482 C.ar    1  UNL1        0.1470
      7 F         137.7781  139.5036  170.1451 F       1  UNL1       -0.2039
      8 C         139.5810  141.2808  169.5611 C.ar    1  UNL1        0.0299
      9 C         140.5056  141.9143  168.5643 C.ar    1  UNL1        0.0021
     10 C         140.5521  141.4040  167.1545 C.ar    1  UNL1        0.0008
     11 C         139.6739  140.2602  166.7416 C.ar    1  UNL1        0.0390
     12 H         136.5445  136.9257  167.1291 H       1  UNL1        0.2884
     13 H         136.7389  137.7357  168.6170 H       1  UNL1        0.2884
     14 C         141.1878  142.6322  163.5896 C.ar    1  UNL1        0.0014
     15 C         142.6231  142.4491  163.9849 C.ar    1  UNL1        0.0000
     16 C         143.0184  141.2989  164.8628 C.ar    1  UNL1       -0.0002
     17 C         141.9784  140.3318  165.3454 C.ar    1  UNL1        0.0004
     18 C         140.5429  140.5148  164.9502 C.ar    1  UNL1        0.0297
     19 C         140.1476  141.6651  164.0722 C.ar    1  UNL1        0.0004
     20 C         140.8773  144.9918  160.4138 C.ar    1  UNL1        0.0608
     21 C         140.0017  146.0827  160.9557 C.ar    1  UNL1        0.1071
     22 N         139.5216  146.0233  162.3755 N.ar    1  UNL1       -0.2417
     23 C         139.9169  144.8732  163.2535 C.ar    1  UNL1        0.0989
     24 C         140.7924  143.7824  162.7117 C.ar    1  UNL1        0.0198
     25 C         141.2726  143.8417  161.2918 C.ar    1  UNL1        0.0113
     26 C         142.3179  145.1698  156.1544 C.3     1  UNL1        0.0903
     27 C         141.8377  145.1105  157.5742 C.1     1  UNL1       -0.0853
     28 C         141.3575  145.0512  158.9940 C.1     1  UNL1       -0.0628
     29 C         139.5493  139.0374  164.0230 C.ar    1  UNL1        0.0326
     30 C         138.2804  138.8888  163.2370 C.ar    1  UNL1        0.0210
     31 C         138.3268  138.3785  161.8273 C.ar    1  UNL1        0.0985
     32 N         139.6421  138.0167  161.2035 N.ar    1  UNL1       -0.2426
     33 C         140.9110  138.1652  161.9896 C.ar    1  UNL1        0.1248
     34 C         140.8646  138.6756  163.3993 C.ar    1  UNL1        0.0207
     35 C         142.2263  137.8034  161.3658 C.3     1  UNL1        0.3581
     36 F         143.4498  137.6647  162.2224 F       1  UNL1       -0.1915
     37 F         142.3181  137.5803  159.8853 F       1  UNL1       -0.1915
@<TRIPOS>BOND
     1    26    27    1
     2    27    28    3
     3    28    20    1
     4    20    21   ar
     5    21    22   ar
     6    22    23   ar
     7    23    24   ar
     8    24    14    1
     9    14    15   ar
    10    15    16   ar
    11    16    17   ar
    12    17    18   ar
    13    18     1    1
    14     1    29    1
    15    29    30   ar
    16    30    31   ar
    17    31    32   ar
    18    32    33   ar
    19    33    35    1
    20    35    36    1
    21    35    37    1
    22    33    34   ar
    23     1     2    1
    24     2     3    2
    25     3     4    1
    26     3     5    1
    27     5     6   ar
    28     6     7    1
    29     6     8   ar
    30     8     9   ar
    31     9    10   ar
    32    10    11   ar
    33    18    19   ar
    34    24    25   ar
    35    25    20   ar
    36    19    14   ar
    37    11     1    1
    38    34    29   ar
    39    11     5   ar
    40     4    12    1
    41     4    13    1
@<TRIPOS>MOLECULE
*****
 37 41 0 0 0
SMALL
GASTEIGER

@<TRIPOS>ATOM
      1 C         139.6140  139.3976  165.8175 C.3     1  UNL1        0.2309
      2 N         138.5586  138.3413  165.9600 N.2     1  UNL1       -0.0614
      3 C         137.9669  138.4597  167.3333 C.2     1  UNL1        0.3157
      4 N         136.8768  137.5996  167.9008 N.pl3   1  UNL1       -0.2464
      5 C         138.6566  139.5891  168.0395 C.ar    1  UNL1        0.1094
      6 C         138.4892  140.1645  169.4146 C.ar    1  UNL1        0.1470
      7 F         137.4712  139.5848  170.3514 F       1  UNL1       -0.2039
      8 C         139.3398  141.3196  169.8528 C.ar    1  UNL1        0.0299
      9 C         140.3578  141.8994  168.9160 C.ar    1  UNL1        0.0021
     10 C         140.5252  141.3239  167.5409 C.ar    1  UNL1        0.0008
     11 C         139.6746  140.1688  167.1027 C.ar    1  UNL1        0.0390
     12 H         136.4847  136.8790  167.3565 H       1  UNL1        0.2884
     13 H         136.5535  137.7557  168.8175 H       1  UNL1        0.2884
     14 C         141.4897  142.3921  164.0105 C.ar    1  UNL1        0.0014
     15 C         142.8853  142.2056  164.5276 C.ar    1  UNL1        0.0000
     16 C         143.1906  141.0831  165.4746 C.ar    1  UNL1       -0.0002
     17 C         142.1002  140.1471  165.9046 C.ar    1  UNL1        0.0004
     18 C         140.7044  140.3336  165.3875 C.ar    1  UNL1        0.0297
     19 C         140.3992  141.4561  164.4405 C.ar    1  UNL1        0.0004
     20 C         141.2948  144.5389  160.6784 C.ar    1  UNL1        0.0608
     21 C         140.5738  145.7593  161.1692 C.ar    1  UNL1        0.1071
     22 N         140.1581  145.8573  162.6071 N.ar    1  UNL1       -0.2417
     23 C         140.4634  144.7349  163.5543 C.ar    1  UNL1        0.0989
     24 C         141.1844  143.5146  163.0634 C.ar    1  UNL1        0.0198
     25 C         141.6001  143.4166  161.6255 C.ar    1  UNL1        0.0113
     26 C         142.5419  144.2450  156.3647 C.3     1  UNL1        0.0903
     27 C         142.1262  144.3430  157.8025 C.1     1  UNL1       -0.0853
     28 C         141.7105  144.4409  159.2405 C.1     1  UNL1       -0.0628
     29 C         139.7814  138.8221  164.4424 C.ar    1  UNL1        0.0326
     30 C         140.8567  137.8102  164.1787 C.ar    1  UNL1        0.0210
     31 C         141.0241  137.2347  162.8037 C.ar    1  UNL1        0.0985
     32 N         140.1162  137.6712  161.6924 N.ar    1  UNL1       -0.2426
     33 C         139.0408  138.6831  161.9561 C.ar    1  UNL1        0.1248
     34 C         138.8734  139.2586  163.3311 C.ar    1  UNL1        0.0207
     35 C         138.1328  139.1196  160.8447 C.3     1  UNL1        0.3581
     36 F         136.6449  139.0549  161.0226 F       1  UNL1       -0.1915
     37 F         138.7129  139.6208  159.5553 F       1  UNL1       -0.1915
@<TRIPOS>BOND
     1    26    27    1
     2    27    28    3
     3    28    20    1
     4    20    21   ar
     5    21    22   ar
     6    22    23   ar
     7    23    24   ar
     8    24    14    1
     9    14    15   ar
    10    15    16   ar
    11    16    17   ar
    12    17    18   ar
    13    18     1    1
    14     1    29    1
    15    29    30   ar
    16    30    31   ar
    17    31    32   ar
    18    32    33   ar
    19    33    35    1
    20    35    36    1
    21    35    37    1
    22    33    34   ar
    23     1     2    1
    24     2     3    2
    25     3     4    1
    26     3     5    1
    27     5     6   ar
    28     6     7    1
    29     6     8   ar
    30     8     9   ar
    31     9    10   ar
    32    10    11   ar
    33    18    19   ar
    34    24    25   ar
    35    25    20   ar
    36    19    14   ar
    37    11     1    1
    38    34    29   ar
    39    11     5   ar
    40     4    12    1
    41     4    13    1
@<TRIPOS>MOLECULE
*****
 37 41 0 0 0
SMALL
GASTEIGER

@<TRIPOS>ATOM
      1 C         141.0677  141.8364  162.7544 C.3     1  UNL1        0.2309
      2 N         142.0422  142.5741  161.8850 N.2     1  UNL1       -0.0614
      3 C         141.4547  143.9169  161.5662 C.2     1  UNL1        0.3157
      4 N         142.0927  144.9809  160.7230 N.pl3   1  UNL1       -0.2464
      5 C         140.1170  144.0091  162.2386 C.ar    1  UNL1        0.1094
      6 C         139.0858  145.0977  162.2771 C.ar    1  UNL1        0.1470
      7 F         139.3250  146.3836  161.5427 F       1  UNL1       -0.2039
      8 C         137.8155  144.9005  163.0499 C.ar    1  UNL1        0.0299
      9 C         137.5763  143.6146  163.7843 C.ar    1  UNL1        0.0021
     10 C         138.6075  142.5259  163.7458 C.ar    1  UNL1        0.0008
     11 C         139.8778  142.7232  162.9730 C.ar    1  UNL1        0.0390
     12 H         142.9784  144.8260  160.3221 H       1  UNL1        0.2884
     13 H         141.6258  145.8341  160.5706 H       1  UNL1        0.2884
     14 C         139.6021  140.0319  165.9710 C.ar    1  UNL1        0.0014
     15 C         138.7908  138.9402  165.3386 C.ar    1  UNL1        0.0000
     16 C         138.7383  138.8139  163.8448 C.ar    1  UNL1       -0.0002
     17 C         139.4973  139.7793  162.9834 C.ar    1  UNL1        0.0004
     18 C         140.3087  140.8710  163.6158 C.ar    1  UNL1        0.0297
     19 C         140.3612  140.9973  165.1096 C.ar    1  UNL1        0.0004
     20 C         138.5646  139.7872  169.7937 C.ar    1  UNL1        0.0608
     21 C         139.7594  140.4109  170.4522 C.ar    1  UNL1        0.1071
     22 N         140.9017  140.9083  169.6169 N.ar    1  UNL1       -0.2417
     23 C         140.8493  140.7819  168.1231 C.ar    1  UNL1        0.0989
     24 C         139.6546  140.1582  167.4647 C.ar    1  UNL1        0.0198
     25 C         138.5122  139.6608  168.3000 C.ar    1  UNL1        0.0113
     26 C         135.1375  138.2950  172.2994 C.3     1  UNL1        0.0903
     27 C         136.2799  138.7924  171.4642 C.1     1  UNL1       -0.0853
     28 C         137.4222  139.2898  170.6290 C.1     1  UNL1       -0.0628
     29 C         142.0989  140.7477  162.7159 C.ar    1  UNL1        0.0326
     30 C         142.5052  140.1456  161.4035 C.ar    1  UNL1        0.0210
     31 C         143.5364  139.0570  161.3650 C.ar    1  UNL1        0.0985
     32 N         144.1613  138.5705  162.6388 N.ar    1  UNL1       -0.2426
     33 C         143.7550  139.1726  163.9512 C.ar    1  UNL1        0.1248
     34 C         142.7238  140.2612  163.9898 C.ar    1  UNL1        0.0207
     35 C         144.3799  138.6860  165.2251 C.3     1  UNL1        0.3581
     36 F         145.8732  138.6213  165.3510 F       1  UNL1       -0.1915
     37 F         143.5115  138.2641  166.3731 F       1  UNL1       -0.1915
@<TRIPOS>BOND
     1    26    27    1
     2    27    28    3
     3    28    20    1
     4    20    21   ar
     5    21    22   ar
     6    22    23   ar
     7    23    24   ar
     8    24    14    1
     9    14    15   ar
    10    15    16   ar
    11    16    17   ar
    12    17    18   ar
    13    18     1    1
    14     1    29    1
    15    29    30   ar
    16    30    31   ar
    17    31    32   ar
    18    32    33   ar
    19    33    35    1
    20    35    36    1
    21    35    37    1
    22    33    34   ar
    23     1     2    1
    24     2     3    2
    25     3     4    1
    26     3     5    1
    27     5     6   ar
    28     6     7    1
    29     6     8   ar
    30     8     9   ar
    31     9    10   ar
    32    10    11   ar
    33    18    19   ar
    34    24    25   ar
    35    25    20   ar
    36    19    14   ar
    37    11     1    1
    38    34    29   ar
    39    11     5   ar
    40     4    12    1
    41     4    13    1
@<TRIPOS>MOLECULE
*****
 37 41 0 0 0
SMALL
GASTEIGER

@<TRIPOS>ATOM
      1 C         141.5834  140.1920  165.8450 C.3     1  UNL1        0.2309
      2 N         142.2056  140.9181  167.0007 N.2     1  UNL1       -0.0614
      3 C         141.2604  140.8361  168.1626 C.2     1  UNL1        0.3157
      4 N         141.4825  141.4271  169.5232 N.pl3   1  UNL1       -0.2464
      5 C         140.0541  140.0594  167.7249 C.ar    1  UNL1        0.1094
      6 C         138.7997  139.6631  168.4456 C.ar    1  UNL1        0.1470
      7 F         138.6001  140.0612  169.8780 F       1  UNL1       -0.2039
      8 C         137.7450  138.8688  167.7339 C.ar    1  UNL1        0.0299
      9 C         137.9446  138.4707  166.3016 C.ar    1  UNL1        0.0021
     10 C         139.1990  138.8670  165.5809 C.ar    1  UNL1        0.0008
     11 C         140.2537  139.6613  166.2926 C.ar    1  UNL1        0.0390
     12 H         142.3111  141.9228  169.7154 H       1  UNL1        0.2884
     13 H         140.7996  141.3194  170.2241 H       1  UNL1        0.2884
     14 C         140.2291  139.7206  162.1445 C.ar    1  UNL1        0.0014
     15 C         140.5038  138.2622  161.9257 C.ar    1  UNL1        0.0000
     16 C         141.1384  137.4472  163.0134 C.ar    1  UNL1       -0.0002
     17 C         141.4982  138.0904  164.3198 C.ar    1  UNL1        0.0004
     18 C         141.2235  139.5488  164.5386 C.ar    1  UNL1        0.0297
     19 C         140.5889  140.3639  163.4509 C.ar    1  UNL1        0.0004
     20 C         138.8444  140.7905  158.5825 C.ar    1  UNL1        0.0608
     21 C         138.3254  142.1658  158.8816 C.ar    1  UNL1        0.1071
     22 N         138.4409  142.7259  160.2683 N.ar    1  UNL1       -0.2417
     23 C         139.0755  141.9108  161.3559 C.ar    1  UNL1        0.0989
     24 C         139.5945  140.5357  161.0569 C.ar    1  UNL1        0.0198
     25 C         139.4789  139.9755  159.6701 C.ar    1  UNL1        0.0113
     26 C         138.4979  139.1101  154.4225 C.3     1  UNL1        0.0903
     27 C         138.6134  139.6702  155.8092 C.1     1  UNL1       -0.0853
     28 C         138.7289  140.2304  157.1959 C.1     1  UNL1       -0.0628
     29 C         142.8379  140.5883  165.1243 C.ar    1  UNL1        0.0326
     30 C         143.9412  139.5900  164.9349 C.ar    1  UNL1        0.0210
     31 C         145.1957  139.9862  164.2142 C.ar    1  UNL1        0.0985
     32 N         145.3467  141.3808  163.6830 N.ar    1  UNL1       -0.2426
     33 C         144.2434  142.3791  163.8724 C.ar    1  UNL1        0.1248
     34 C         142.9890  141.9829  164.5931 C.ar    1  UNL1        0.0207
     35 C         144.3945  143.7738  163.3412 C.3     1  UNL1        0.3581
     36 F         144.8056  143.9928  161.9154 F       1  UNL1       -0.1915
     37 F         144.1346  144.9494  164.2358 F       1  UNL1       -0.1915
@<TRIPOS>BOND
     1    26    27    1
     2    27    28    3
     3    28    20    1
     4    20    21   ar
     5    21    22   ar
     6    22    23   ar
     7    23    24   ar
     8    24    14    1
     9    14    15   ar
    10    15    16   ar
    11    16    17   ar
    12    17    18   ar
    13    18     1    1
    14     1    29    1
    15    29    30   ar
    16    30    31   ar
    17    31    32   ar
    18    32    33   ar
    19    33    35    1
    20    35    36    1
    21    35    37    1
    22    33    34   ar
    23     1     2    1
    24     2     3    2
    25     3     4    1
    26     3     5    1
    27     5     6   ar
    28     6     7    1
    29     6     8   ar
    30     8     9   ar
    31     9    10   ar
    32    10    11   ar
    33    18    19   ar
    34    24    25   ar
    35    25    20   ar
    36    19    14   ar
    37    11     1    1
    38    34    29   ar
    39    11     5   ar
    40     4    12    1
    41     4    13    1
