@<TRIPOS>MOLECULE
*****
 37 40 0 0 0
SMALL
GASTEIGER

@<TRIPOS>ATOM
      1 C         141.4794  143.1355  161.6191 C.ar    1  UNL1        0.0537
      2 C         141.7936  142.0931  160.5873 C.ar    1  UNL1        0.0060
      3 C         142.2406  140.7263  161.0139 C.ar    1  UNL1        0.0173
      4 C         142.3735  140.4019  162.4723 C.ar    1  UNL1        0.0594
      5 C         142.0593  141.4443  163.5041 C.ar    1  UNL1        0.0130
      6 C         141.6122  142.8111  163.0775 C.ar    1  UNL1        0.0057
      7 C         142.2806  140.8378  164.8582 C.ar    1  UNL1       -0.0091
      8 C         142.7315  139.4205  164.6631 C.ar    1  UNL1        0.0331
      9 N         142.7890  139.1512  163.1886 N.ar    1  UNL1       -0.3289
     10 C         143.1913  137.8581  162.5436 C.3     1  UNL1        0.1301
     11 C         143.0317  138.5584  165.8533 C.3     1  UNL1        0.0435
     12 C         142.8808  139.1136  167.2386 C.3     1  UNL1        0.0066
     13 C         142.4298  140.5308  167.4337 C.3     1  UNL1        0.0049
     14 C         142.1297  141.3929  166.2434 C.3     1  UNL1        0.0275
     15 C         142.2789  141.0859  168.8190 C.3     1  UNL1        0.0053
     16 C         141.4318  140.3672  169.8268 C.3     1  UNL1        0.0322
     17 C         141.2809  140.9223  171.2121 C.3     1  UNL1        0.1422
     18 O         141.9772  142.1963  171.5896 O.3     1  UNL1       -0.3538
     19 C         142.8243  142.9150  170.5817 C.3     1  UNL1        0.1422
     20 C         142.9752  142.3599  169.1964 C.3     1  UNL1        0.0322
     21 C         139.2557  146.3978  161.2160 C.3     1  UNL1        0.1152
     22 N         139.7028  145.0310  161.6426 N.am    1  UNL1       -0.2735
     23 C         141.0323  144.5023  161.1925 C.2     1  UNL1        0.2491
     24 O         141.9148  145.3403  160.3157 O.2     1  UNL1       -0.2699
     25 C         138.8202  144.1929  162.5194 C.3     1  UNL1        0.1054
     26 C         138.6659  144.5330  163.9722 C.3     1  UNL1        0.1568
     27 O         139.6971  145.3792  164.6580 O.3     1  UNL1       -0.3802
     28 H         140.5390  144.8986  164.6924 H       1  UNL1        0.2105
     29 C         138.0920  143.0148  161.9435 C.3     1  UNL1        0.0319
     30 C         137.3664  142.0652  162.8501 C.3     1  UNL1        0.0868
     31 C         138.1070  140.9333  163.4982 C.2     1  UNL1        0.2226
     32 O         138.9763  140.0340  162.6701 O.2     1  UNL1       -0.2751
     33 N         137.9785  140.7007  164.9744 N.am    1  UNL1       -0.3017
     34 H         137.4079  141.2909  165.5179 H       1  UNL1        0.1495
     35 C         138.7191  139.5687  165.6227 C.3     1  UNL1        0.1278
     36 C         137.9921  138.6150  166.5237 C.3     1  UNL1        0.2143
     37 F         137.9801  137.1483  166.2100 F       1  UNL1       -0.2324
@<TRIPOS>BOND
     1    21    22    1
     2    22    23   am
     3    23    24    2
     4    23     1    1
     5     1     2   ar
     6     2     3   ar
     7     3     4   ar
     8     4     5   ar
     9     5     6   ar
    10     5     7   ar
    11     7     8   ar
    12     8     9   ar
    13     9    10    1
    14     8    11    1
    15    11    12    1
    16    12    13    1
    17    13    15    1
    18    15    16    1
    19    16    17    1
    20    17    18    1
    21    18    19    1
    22    19    20    1
    23    13    14    1
    24    22    25    1
    25    25    26    1
    26    26    27    1
    27    25    29    1
    28    29    30    1
    29    30    31    1
    30    31    32    2
    31    31    33   am
    32    33    35    1
    33    35    36    1
    34    36    37    1
    35     6     1   ar
    36    14     7    1
    37     9     4   ar
    38    20    15    1
    39    27    28    1
    40    33    34    1
@<TRIPOS>MOLECULE
*****
 37 40 0 0 0
SMALL
GASTEIGER

@<TRIPOS>ATOM
      1 C         140.6111  140.3548  159.7933 C.ar    1  UNL1        0.0537
      2 C         140.2559  141.5965  159.0305 C.ar    1  UNL1        0.0060
      3 C         139.9850  142.8761  159.7649 C.ar    1  UNL1        0.0173
      4 C         140.0694  142.9140  161.2620 C.ar    1  UNL1        0.0594
      5 C         140.4246  141.6723  162.0248 C.ar    1  UNL1        0.0130
      6 C         140.6954  140.3927  161.2904 C.ar    1  UNL1        0.0057
      7 C         140.4319  142.0119  163.4859 C.ar    1  UNL1       -0.0091
      8 C         140.0813  143.4636  163.6260 C.ar    1  UNL1        0.0331
      9 N         139.8572  144.0211  162.2516 N.ar    1  UNL1       -0.3289
     10 C         139.4861  145.4371  161.9242 C.3     1  UNL1        0.1301
     11 C         140.0113  144.0903  164.9869 C.3     1  UNL1        0.0435
     12 C         140.2920  143.2652  166.2078 C.3     1  UNL1        0.0066
     13 C         140.6427  141.8136  166.0677 C.3     1  UNL1        0.0049
     14 C         140.7126  141.1869  164.7067 C.3     1  UNL1        0.0275
     15 C         140.9234  140.9885  167.2886 C.3     1  UNL1        0.0053
     16 C         142.2300  140.2636  167.4198 C.3     1  UNL1        0.0322
     17 C         142.5107  139.4386  168.6407 C.3     1  UNL1        0.1422
     18 O         141.4847  139.3385  169.7304 O.3     1  UNL1       -0.3538
     19 C         140.1781  140.0634  169.5992 C.3     1  UNL1        0.1422
     20 C         139.8974  140.8884  168.3783 C.3     1  UNL1        0.0322
     21 C         142.5621  137.4083  157.9874 C.3     1  UNL1        0.1152
     22 N         142.2912  138.6879  158.7217 N.am    1  UNL1       -0.2735
     23 C         140.8819  139.0752  159.0590 C.2     1  UNL1        0.2491
     24 O         139.7435  138.1829  158.6619 O.2     1  UNL1       -0.2699
     25 C         143.4298  139.5802  159.1188 C.3     1  UNL1        0.1054
     26 C         143.9507  140.6050  158.1553 C.3     1  UNL1        0.1568
     27 O         145.1722  140.3114  157.3357 O.3     1  UNL1       -0.3802
     28 H         145.9422  140.2319  157.9202 H       1  UNL1        0.2105
     29 C         144.0474  139.4476  160.4793 C.3     1  UNL1        0.0319
     30 C         143.8987  138.1687  161.2491 C.3     1  UNL1        0.0868
     31 C         143.0499  138.1318  162.4852 C.2     1  UNL1        0.2226
     32 O         143.4127  138.9777  163.6697 O.2     1  UNL1       -0.2751
     33 N         141.8383  137.2490  162.5369 N.am    1  UNL1       -0.3017
     34 H         141.6002  136.6939  161.7596 H       1  UNL1        0.1495
     35 C         140.9895  137.2120  163.7732 C.3     1  UNL1        0.1278
     36 C         139.6197  137.8233  163.7610 C.3     1  UNL1        0.2143
     37 F         138.5245  137.1932  162.9526 F       1  UNL1       -0.2324
@<TRIPOS>BOND
     1    21    22    1
     2    22    23   am
     3    23    24    2
     4    23     1    1
     5     1     2   ar
     6     2     3   ar
     7     3     4   ar
     8     4     5   ar
     9     5     6   ar
    10     5     7   ar
    11     7     8   ar
    12     8     9   ar
    13     9    10    1
    14     8    11    1
    15    11    12    1
    16    12    13    1
    17    13    15    1
    18    15    16    1
    19    16    17    1
    20    17    18    1
    21    18    19    1
    22    19    20    1
    23    13    14    1
    24    22    25    1
    25    25    26    1
    26    26    27    1
    27    25    29    1
    28    29    30    1
    29    30    31    1
    30    31    32    2
    31    31    33   am
    32    33    35    1
    33    35    36    1
    34    36    37    1
    35     6     1   ar
    36    14     7    1
    37     9     4   ar
    38    20    15    1
    39    27    28    1
    40    33    34    1
@<TRIPOS>MOLECULE
*****
 37 40 0 0 0
SMALL
GASTEIGER

@<TRIPOS>ATOM
      1 C         141.8402  141.1714  160.8622 C.ar    1  UNL1        0.0537
      2 C         141.0971  140.0215  160.2494 C.ar    1  UNL1        0.0060
      3 C         140.2670  139.1190  161.1135 C.ar    1  UNL1        0.0173
      4 C         140.1801  139.3665  162.5904 C.ar    1  UNL1        0.0594
      5 C         140.9232  140.5164  163.2031 C.ar    1  UNL1        0.0130
      6 C         141.7533  141.4188  162.3390 C.ar    1  UNL1        0.0057
      7 C         140.6494  140.5121  164.6780 C.ar    1  UNL1       -0.0091
      8 C         139.7370  139.3596  164.9767 C.ar    1  UNL1        0.0331
      9 N         139.4470  138.6515  163.6865 N.ar    1  UNL1       -0.3289
     10 C         138.5767  137.4411  163.5213 C.3     1  UNL1        0.1301
     11 C         139.2882  139.1037  166.3848 C.3     1  UNL1        0.0435
     12 C         139.7518  140.0004  167.4944 C.3     1  UNL1        0.0066
     13 C         140.6641  141.1529  167.1957 C.3     1  UNL1        0.0049
     14 C         141.1129  141.4087  165.7875 C.3     1  UNL1        0.0275
     15 C         141.1277  142.0496  168.3053 C.3     1  UNL1        0.0053
     16 C         142.5008  141.8781  168.8841 C.3     1  UNL1        0.0322
     17 C         142.9644  142.7748  169.9936 C.3     1  UNL1        0.1422
     18 O         142.0547  143.8430  170.5244 O.3     1  UNL1       -0.3538
     19 C         140.6816  144.0145  169.9455 C.3     1  UNL1        0.1422
     20 C         140.2180  143.1178  168.8360 C.3     1  UNL1        0.0322
     21 C         142.8490  144.0919  158.3717 C.3     1  UNL1        0.1152
     22 N         142.0190  143.1895  159.2358 N.am    1  UNL1       -0.2735
     23 C         142.6702  142.0738  159.9981 C.2     1  UNL1        0.2491
     24 O         144.1514  141.8605  159.8962 O.2     1  UNL1       -0.2699
     25 C         140.5377  143.4028  159.3377 C.3     1  UNL1        0.1054
     26 C         139.6332  142.9180  158.2437 C.3     1  UNL1        0.1568
     27 O         138.5997  141.8704  158.5341 O.3     1  UNL1       -0.3802
     28 H         139.0397  141.0367  158.7624 H       1  UNL1        0.2105
     29 C         139.9610  144.1010  160.5334 C.3     1  UNL1        0.0319
     30 C         140.6756  145.2757  161.1331 C.3     1  UNL1        0.0868
     31 C         141.4244  145.1192  162.4233 C.2     1  UNL1        0.2226
     32 O         140.6742  144.9094  163.7052 O.2     1  UNL1       -0.2751
     33 N         142.9234  145.1726  162.4317 N.am    1  UNL1       -0.3017
     34 H         143.4157  145.3103  161.5904 H       1  UNL1        0.1495
     35 C         143.6723  145.0161  163.7220 C.3     1  UNL1        0.1278
     36 C         144.0004  143.6462  164.2373 C.3     1  UNL1        0.2143
     37 F         144.9778  143.4828  165.3633 F       1  UNL1       -0.2324
@<TRIPOS>BOND
     1    21    22    1
     2    22    23   am
     3    23    24    2
     4    23     1    1
     5     1     2   ar
     6     2     3   ar
     7     3     4   ar
     8     4     5   ar
     9     5     6   ar
    10     5     7   ar
    11     7     8   ar
    12     8     9   ar
    13     9    10    1
    14     8    11    1
    15    11    12    1
    16    12    13    1
    17    13    15    1
    18    15    16    1
    19    16    17    1
    20    17    18    1
    21    18    19    1
    22    19    20    1
    23    13    14    1
    24    22    25    1
    25    25    26    1
    26    26    27    1
    27    25    29    1
    28    29    30    1
    29    30    31    1
    30    31    32    2
    31    31    33   am
    32    33    35    1
    33    35    36    1
    34    36    37    1
    35     6     1   ar
    36    14     7    1
    37     9     4   ar
    38    20    15    1
    39    27    28    1
    40    33    34    1
@<TRIPOS>MOLECULE
*****
 37 40 0 0 0
SMALL
GASTEIGER

@<TRIPOS>ATOM
      1 C         140.2041  142.8952  160.7710 C.ar    1  UNL1        0.0537
      2 C         139.6503  141.7065  160.0430 C.ar    1  UNL1        0.0060
      3 C         139.3236  140.4511  160.7961 C.ar    1  UNL1        0.0173
      4 C         139.5508  140.3843  162.2773 C.ar    1  UNL1        0.0594
      5 C         140.1046  141.5731  163.0053 C.ar    1  UNL1        0.0130
      6 C         140.4313  142.8285  162.2522 C.ar    1  UNL1        0.0057
      7 C         140.2212  141.2145  164.4572 C.ar    1  UNL1       -0.0091
      8 C         139.7393  139.8041  164.6264 C.ar    1  UNL1        0.0331
      9 N         139.3250  139.2911  163.2791 N.ar    1  UNL1       -0.3289
     10 C         138.7805  137.9247  162.9853 C.3     1  UNL1        0.1301
     11 C         139.7401  139.1692  165.9853 C.3     1  UNL1        0.0435
     12 C         140.2228  139.9447  167.1752 C.3     1  UNL1        0.0066
     13 C         140.7046  141.3551  167.0060 C.3     1  UNL1        0.0049
     14 C         140.7038  141.9900  165.6469 C.3     1  UNL1        0.0275
     15 C         141.1873  142.1306  168.1958 C.3     1  UNL1        0.0053
     16 C         142.5453  141.8550  168.7701 C.3     1  UNL1        0.0322
     17 C         143.0279  142.6305  169.9599 C.3     1  UNL1        0.1422
     18 O         142.1525  143.6817  170.5754 O.3     1  UNL1       -0.3538
     19 C         140.7945  143.9573  170.0012 C.3     1  UNL1        0.1422
     20 C         140.3118  143.1818  168.8113 C.3     1  UNL1        0.0322
     21 C         142.0682  145.4568  158.3807 C.3     1  UNL1        0.1152
     22 N         141.7415  144.2013  159.1338 N.am    1  UNL1       -0.2735
     23 C         140.5308  144.1506  160.0179 C.2     1  UNL1        0.2491
     24 O         139.6469  145.3553  160.1489 O.2     1  UNL1       -0.2699
     25 C         142.6255  142.9966  159.0028 C.3     1  UNL1        0.1054
     26 C         142.5376  142.1312  157.7807 C.3     1  UNL1        0.1568
     27 O         142.1009  140.7015  157.9040 O.3     1  UNL1       -0.3802
     28 H         142.7632  140.2035  158.4083 H       1  UNL1        0.2105
     29 C         143.5974  142.6573  160.0938 C.3     1  UNL1        0.0319
     30 C         143.6137  141.2771  160.6812 C.3     1  UNL1        0.0868
     31 C         144.1789  141.0522  162.0523 C.2     1  UNL1        0.2226
     32 O         145.5219  141.6155  162.4116 O.2     1  UNL1       -0.2751
     33 N         143.4011  140.2640  163.0640 N.am    1  UNL1       -0.3017
     34 H         142.5197  139.8943  162.8282 H       1  UNL1        0.1495
     35 C         143.9663  140.0391  164.4352 C.3     1  UNL1        0.1278
     36 C         143.4092  138.9531  165.3072 C.3     1  UNL1        0.2143
     37 F         143.4069  139.1158  166.7983 F       1  UNL1       -0.2324
@<TRIPOS>BOND
     1    21    22    1
     2    22    23   am
     3    23    24    2
     4    23     1    1
     5     1     2   ar
     6     2     3   ar
     7     3     4   ar
     8     4     5   ar
     9     5     6   ar
    10     5     7   ar
    11     7     8   ar
    12     8     9   ar
    13     9    10    1
    14     8    11    1
    15    11    12    1
    16    12    13    1
    17    13    15    1
    18    15    16    1
    19    16    17    1
    20    17    18    1
    21    18    19    1
    22    19    20    1
    23    13    14    1
    24    22    25    1
    25    25    26    1
    26    26    27    1
    27    25    29    1
    28    29    30    1
    29    30    31    1
    30    31    32    2
    31    31    33   am
    32    33    35    1
    33    35    36    1
    34    36    37    1
    35     6     1   ar
    36    14     7    1
    37     9     4   ar
    38    20    15    1
    39    27    28    1
    40    33    34    1
@<TRIPOS>MOLECULE
*****
 37 40 0 0 0
SMALL
GASTEIGER

@<TRIPOS>ATOM
      1 C         141.9935  140.8815  160.1330 C.ar    1  UNL1        0.0537
      2 C         141.4955  142.0725  159.3692 C.ar    1  UNL1        0.0060
      3 C         140.8423  143.2102  160.0964 C.ar    1  UNL1        0.0173
      4 C         140.6870  143.1569  161.5874 C.ar    1  UNL1        0.0594
      5 C         141.1850  141.9659  162.3512 C.ar    1  UNL1        0.0130
      6 C         141.8382  140.8281  161.6239 C.ar    1  UNL1        0.0057
      7 C         140.8949  142.1932  163.8052 C.ar    1  UNL1       -0.0091
      8 C         140.2177  143.5248  163.9401 C.ar    1  UNL1        0.0331
      9 N         140.0892  144.1204  162.5694 N.ar    1  UNL1       -0.3289
     10 C         139.4713  145.4466  162.2387 C.3     1  UNL1        0.1301
     11 C         139.8055  144.0230  165.2935 C.3     1  UNL1        0.0435
     12 C         140.0706  143.1895  166.5122 C.3     1  UNL1        0.0066
     13 C         140.7478  141.8580  166.3773 C.3     1  UNL1        0.0049
     14 C         141.1600  141.3598  165.0238 C.3     1  UNL1        0.0275
     15 C         141.0129  141.0245  167.5960 C.3     1  UNL1        0.0053
     16 C         142.2607  140.1965  167.6814 C.3     1  UNL1        0.0322
     17 C         142.5258  139.3630  168.9001 C.3     1  UNL1        0.1422
     18 O         141.5430  139.3576  170.0333 O.3     1  UNL1       -0.3538
     19 C         140.2952  140.1856  169.9479 C.3     1  UNL1        0.1422
     20 C         140.0301  141.0191  168.7292 C.3     1  UNL1        0.0322
     21 C         142.4586  137.5266  158.0645 C.3     1  UNL1        0.1152
     22 N         141.8054  138.6644  158.7917 N.am    1  UNL1       -0.2735
     23 C         142.6467  139.7437  159.4058 C.2     1  UNL1        0.2491
     24 O         144.1413  139.6853  159.2927 O.2     1  UNL1       -0.2699
     25 C         140.3107  138.7227  158.9048 C.3     1  UNL1        0.1054
     26 C         139.4918  139.2423  157.7606 C.3     1  UNL1        0.1568
     27 O         139.0598  138.3135  156.6648 O.3     1  UNL1       -0.3802
     28 H         139.8393  138.0026  156.1784 H       1  UNL1        0.2105
     29 C         139.6352  138.2615  160.1621 C.3     1  UNL1        0.0319
     30 C         138.6778  139.1696  160.8756 C.3     1  UNL1        0.0868
     31 C         138.4287  138.9922  162.3440 C.2     1  UNL1        0.2226
     32 O         137.7230  140.0645  163.1200 O.2     1  UNL1       -0.2751
     33 N         138.8854  137.7424  163.0365 N.am    1  UNL1       -0.3017
     34 H         139.3485  137.0386  162.5272 H       1  UNL1        0.1495
     35 C         138.6363  137.5649  164.5051 C.3     1  UNL1        0.1278
     36 C         139.2231  138.5344  165.4878 C.3     1  UNL1        0.2143
     37 F         138.3376  139.5249  166.1840 F       1  UNL1       -0.2324
@<TRIPOS>BOND
     1    21    22    1
     2    22    23   am
     3    23    24    2
     4    23     1    1
     5     1     2   ar
     6     2     3   ar
     7     3     4   ar
     8     4     5   ar
     9     5     6   ar
    10     5     7   ar
    11     7     8   ar
    12     8     9   ar
    13     9    10    1
    14     8    11    1
    15    11    12    1
    16    12    13    1
    17    13    15    1
    18    15    16    1
    19    16    17    1
    20    17    18    1
    21    18    19    1
    22    19    20    1
    23    13    14    1
    24    22    25    1
    25    25    26    1
    26    26    27    1
    27    25    29    1
    28    29    30    1
    29    30    31    1
    30    31    32    2
    31    31    33   am
    32    33    35    1
    33    35    36    1
    34    36    37    1
    35     6     1   ar
    36    14     7    1
    37     9     4   ar
    38    20    15    1
    39    27    28    1
    40    33    34    1
@<TRIPOS>MOLECULE
*****
 37 40 0 0 0
SMALL
GASTEIGER

@<TRIPOS>ATOM
      1 C         142.0393  141.1975  160.8331 C.ar    1  UNL1        0.0537
      2 C         141.3069  140.0523  160.1990 C.ar    1  UNL1        0.0060
      3 C         140.4496  139.1529  161.0394 C.ar    1  UNL1        0.0173
      4 C         140.3248  139.3987  162.5138 C.ar    1  UNL1        0.0594
      5 C         141.0572  140.5439  163.1479 C.ar    1  UNL1        0.0130
      6 C         141.9144  141.4433  162.3075 C.ar    1  UNL1        0.0057
      7 C         140.7443  140.5390  164.6149 C.ar    1  UNL1       -0.0091
      8 C         139.8185  139.3907  164.8875 C.ar    1  UNL1        0.0331
      9 N         139.5592  138.6860  163.5889 N.ar    1  UNL1       -0.3289
     10 C         138.6875  137.4802  163.3989 C.3     1  UNL1        0.1301
     11 C         139.3312  139.1351  166.2828 C.3     1  UNL1        0.0435
     12 C         139.7696  140.0279  167.4057 C.3     1  UNL1        0.0066
     13 C         140.6954  141.1762  167.1331 C.3     1  UNL1        0.0049
     14 C         141.1827  141.4317  165.7377 C.3     1  UNL1        0.0275
     15 C         141.1339  142.0689  168.2560 C.3     1  UNL1        0.0053
     16 C         142.5020  141.9098  168.8501 C.3     1  UNL1        0.0322
     17 C         142.9404  142.8026  169.9730 C.3     1  UNL1        0.1422
     18 O         142.0108  143.8544  170.5016 O.3     1  UNL1       -0.3538
     19 C         140.6427  144.0135  169.9075 C.3     1  UNL1        0.1422
     20 C         140.2042  143.1208  168.7846 C.3     1  UNL1        0.0322
     21 C         143.1183  143.9355  158.1705 C.3     1  UNL1        0.1152
     22 N         142.2610  143.0361  159.0109 N.am    1  UNL1       -0.2735
     23 C         142.8965  142.0969  159.9927 C.2     1  UNL1        0.2491
     24 O         144.3893  142.0571  160.1342 O.2     1  UNL1       -0.2699
     25 C         140.7682  143.0759  158.8694 C.3     1  UNL1        0.1054
     26 C         140.1027  142.3523  157.7365 C.3     1  UNL1        0.1568
     27 O         139.7097  143.0999  156.4968 O.3     1  UNL1       -0.3802
     28 H         139.0132  143.7397  156.7122 H       1  UNL1        0.2105
     29 C         139.9410  143.8393  159.8608 C.3     1  UNL1        0.0319
     30 C         139.0444  143.1047  160.8131 C.3     1  UNL1        0.0868
     31 C         138.6132  143.7582  162.0925 C.2     1  UNL1        0.2226
     32 O         138.4286  145.2457  162.1499 O.2     1  UNL1       -0.2751
     33 N         138.3666  142.9241  163.3146 N.am    1  UNL1       -0.3017
     34 H         138.4878  141.9478  163.2769 H       1  UNL1        0.1495
     35 C         137.9354  143.5776  164.5941 C.3     1  UNL1        0.1278
     36 C         138.9019  144.4264  165.3656 C.3     1  UNL1        0.2143
     37 F         138.3923  145.5002  166.2806 F       1  UNL1       -0.2324
@<TRIPOS>BOND
     1    21    22    1
     2    22    23   am
     3    23    24    2
     4    23     1    1
     5     1     2   ar
     6     2     3   ar
     7     3     4   ar
     8     4     5   ar
     9     5     6   ar
    10     5     7   ar
    11     7     8   ar
    12     8     9   ar
    13     9    10    1
    14     8    11    1
    15    11    12    1
    16    12    13    1
    17    13    15    1
    18    15    16    1
    19    16    17    1
    20    17    18    1
    21    18    19    1
    22    19    20    1
    23    13    14    1
    24    22    25    1
    25    25    26    1
    26    26    27    1
    27    25    29    1
    28    29    30    1
    29    30    31    1
    30    31    32    2
    31    31    33   am
    32    33    35    1
    33    35    36    1
    34    36    37    1
    35     6     1   ar
    36    14     7    1
    37     9     4   ar
    38    20    15    1
    39    27    28    1
    40    33    34    1
@<TRIPOS>MOLECULE
*****
 37 40 0 0 0
SMALL
GASTEIGER

@<TRIPOS>ATOM
      1 C         142.5032  140.1818  159.8483 C.ar    1  UNL1        0.0537
      2 C         141.3598  139.5595  159.1032 C.ar    1  UNL1        0.0060
      3 C         140.1705  139.0380  159.8540 C.ar    1  UNL1        0.0173
      4 C         140.1247  139.1388  161.3499 C.ar    1  UNL1        0.0594
      5 C         141.2681  139.7610  162.0950 C.ar    1  UNL1        0.0130
      6 C         142.4574  140.2826  161.3442 C.ar    1  UNL1        0.0057
      7 C         140.9434  139.7223  163.5589 C.ar    1  UNL1       -0.0091
      8 C         139.5992  139.0761  163.7185 C.ar    1  UNL1        0.0331
      9 N         139.0932  138.7154  162.3533 N.ar    1  UNL1       -0.3289
     10 C         137.7854  138.0485  162.0454 C.3     1  UNL1        0.1301
     11 C         139.0095  138.8996  165.0864 C.3     1  UNL1        0.0435
     12 C         139.7641  139.3692  166.2947 C.3     1  UNL1        0.0066
     13 C         141.1083  140.0155  166.1351 C.3     1  UNL1        0.0049
     14 C         141.6979  140.1920  164.7671 C.3     1  UNL1        0.0275
     15 C         141.8629  140.4852  167.3434 C.3     1  UNL1        0.0053
     16 C         142.5067  141.8399  167.3457 C.3     1  UNL1        0.0322
     17 C         143.2613  142.3096  168.5541 C.3     1  UNL1        0.1422
     18 O         143.3721  141.4245  169.7600 O.3     1  UNL1       -0.3538
     19 C         142.7283  140.0697  169.7577 C.3     1  UNL1        0.1422
     20 C         141.9737  139.6000  168.5494 C.3     1  UNL1        0.0322
     21 C         145.2543  142.6744  158.4454 C.3     1  UNL1        0.1152
     22 N         144.0651  142.1529  159.1962 N.am    1  UNL1       -0.2735
     23 C         143.6925  140.7033  159.0975 C.2     1  UNL1        0.2491
     24 O         144.5092  139.7752  158.2481 O.2     1  UNL1       -0.2699
     25 C         143.2483  143.0811  160.0457 C.3     1  UNL1        0.1054
     26 C         143.7036  143.4239  161.4332 C.3     1  UNL1        0.1568
     27 O         143.4087  144.7783  162.0062 O.3     1  UNL1       -0.3802
     28 H         143.8923  145.4536  161.5052 H       1  UNL1        0.2105
     29 C         141.9764  143.6664  159.5077 C.3     1  UNL1        0.0319
     30 C         140.6736  143.3928  160.1989 C.3     1  UNL1        0.0868
     31 C         140.1545  144.3527  161.2280 C.2     1  UNL1        0.2226
     32 O         139.4148  145.5850  160.7987 O.2     1  UNL1       -0.2751
     33 N         140.3751  144.0803  162.6865 N.am    1  UNL1       -0.3017
     34 H         140.8605  143.2715  162.9682 H       1  UNL1        0.1495
     35 C         139.8560  145.0402  163.7157 C.3     1  UNL1        0.1278
     36 C         138.6765  144.6655  164.5633 C.3     1  UNL1        0.2143
     37 F         138.6386  145.0572  166.0108 F       1  UNL1       -0.2324
@<TRIPOS>BOND
     1    21    22    1
     2    22    23   am
     3    23    24    2
     4    23     1    1
     5     1     2   ar
     6     2     3   ar
     7     3     4   ar
     8     4     5   ar
     9     5     6   ar
    10     5     7   ar
    11     7     8   ar
    12     8     9   ar
    13     9    10    1
    14     8    11    1
    15    11    12    1
    16    12    13    1
    17    13    15    1
    18    15    16    1
    19    16    17    1
    20    17    18    1
    21    18    19    1
    22    19    20    1
    23    13    14    1
    24    22    25    1
    25    25    26    1
    26    26    27    1
    27    25    29    1
    28    29    30    1
    29    30    31    1
    30    31    32    2
    31    31    33   am
    32    33    35    1
    33    35    36    1
    34    36    37    1
    35     6     1   ar
    36    14     7    1
    37     9     4   ar
    38    20    15    1
    39    27    28    1
    40    33    34    1
@<TRIPOS>MOLECULE
*****
 37 40 0 0 0
SMALL
GASTEIGER

@<TRIPOS>ATOM
      1 C         141.4115  143.2380  161.6407 C.ar    1  UNL1        0.0537
      2 C         141.6881  142.1838  160.6101 C.ar    1  UNL1        0.0060
      3 C         142.1048  140.8078  161.0378 C.ar    1  UNL1        0.0173
      4 C         142.2449  140.4860  162.4962 C.ar    1  UNL1        0.0594
      5 C         141.9683  141.5402  163.5267 C.ar    1  UNL1        0.0130
      6 C         141.5516  142.9162  163.0990 C.ar    1  UNL1        0.0057
      7 C         142.1886  140.9337  164.8809 C.ar    1  UNL1       -0.0091
      8 C         142.6013  139.5047  164.6872 C.ar    1  UNL1        0.0331
      9 N         142.6361  139.2280  163.2134 N.ar    1  UNL1       -0.3289
     10 C         142.9986  137.9225  162.5697 C.3     1  UNL1        0.1301
     11 C         142.8921  138.6400  165.8778 C.3     1  UNL1        0.0435
     12 C         142.7702  139.2044  167.2623 C.3     1  UNL1        0.0066
     13 C         142.3574  140.6334  167.4560 C.3     1  UNL1        0.0049
     14 C         142.0666  141.4981  166.2653 C.3     1  UNL1        0.0275
     15 C         142.2355  141.1978  168.8404 C.3     1  UNL1        0.0053
     16 C         143.0592  142.3855  169.2415 C.3     1  UNL1        0.0322
     17 C         142.9373  142.9498  170.6259 C.3     1  UNL1        0.1422
     18 O         141.9915  142.3264  171.6093 O.3     1  UNL1       -0.3538
     19 C         141.1678  141.1387  171.2083 C.3     1  UNL1        0.1422
     20 C         141.2897  140.5744  169.8239 C.3     1  UNL1        0.0322
     21 C         139.4148  146.6626  161.4519 C.3     1  UNL1        0.1152
     22 N         139.8315  145.2866  161.8796 N.am    1  UNL1       -0.2735
     23 C         140.9948  144.6140  161.2129 C.2     1  UNL1        0.2491
     24 O         141.7413  145.3175  160.1185 O.2     1  UNL1       -0.2699
     25 C         139.0849  144.5831  162.9741 C.3     1  UNL1        0.1054
     26 C         139.5457  144.7073  164.3961 C.3     1  UNL1        0.1568
     27 O         138.5650  145.0627  165.4740 O.3     1  UNL1       -0.3802
     28 H         138.2388  145.9647  165.3297 H       1  UNL1        0.2105
     29 C         137.8776  143.7555  162.6465 C.3     1  UNL1        0.0319
     30 C         138.0308  142.2965  162.3334 C.3     1  UNL1        0.0868
     31 C         138.2313  141.8507  160.9153 C.2     1  UNL1        0.2226
     32 O         138.2015  142.8555  159.8020 O.2     1  UNL1       -0.2751
     33 N         138.4616  140.4002  160.6106 N.am    1  UNL1       -0.3017
     34 H         138.4811  139.7408  161.3414 H       1  UNL1        0.1495
     35 C         138.6621  139.9543  159.1925 C.3     1  UNL1        0.1278
     36 C         139.5527  138.7853  158.8926 C.3     1  UNL1        0.2143
     37 F         140.9597  139.0146  158.4261 F       1  UNL1       -0.2324
@<TRIPOS>BOND
     1    21    22    1
     2    22    23   am
     3    23    24    2
     4    23     1    1
     5     1     2   ar
     6     2     3   ar
     7     3     4   ar
     8     4     5   ar
     9     5     6   ar
    10     5     7   ar
    11     7     8   ar
    12     8     9   ar
    13     9    10    1
    14     8    11    1
    15    11    12    1
    16    12    13    1
    17    13    15    1
    18    15    16    1
    19    16    17    1
    20    17    18    1
    21    18    19    1
    22    19    20    1
    23    13    14    1
    24    22    25    1
    25    25    26    1
    26    26    27    1
    27    25    29    1
    28    29    30    1
    29    30    31    1
    30    31    32    2
    31    31    33   am
    32    33    35    1
    33    35    36    1
    34    36    37    1
    35     6     1   ar
    36    14     7    1
    37     9     4   ar
    38    20    15    1
    39    27    28    1
    40    33    34    1
@<TRIPOS>MOLECULE
*****
 37 40 0 0 0
SMALL
GASTEIGER

@<TRIPOS>ATOM
      1 C         141.7949  143.4861  160.6841 C.ar    1  UNL1        0.0537
      2 C         141.2328  142.0968  160.7452 C.ar    1  UNL1        0.0060
      3 C         140.2249  141.6502  159.7280 C.ar    1  UNL1        0.0173
      4 C         139.7793  142.5928  158.6496 C.ar    1  UNL1        0.0594
      5 C         140.3415  143.9821  158.5886 C.ar    1  UNL1        0.0130
      6 C         141.3493  144.4287  159.6058 C.ar    1  UNL1        0.0057
      7 C         139.7171  144.6838  157.4190 C.ar    1  UNL1       -0.0091
      8 C         138.7691  143.7282  156.7573 C.ar    1  UNL1        0.0331
      9 N         138.8075  142.4358  157.5179 N.ar    1  UNL1       -0.3289
     10 C         138.0135  141.2030  157.2021 C.3     1  UNL1        0.1301
     11 C         137.9933  144.1581  155.5477 C.3     1  UNL1        0.0435
     12 C         138.1656  145.5438  154.9998 C.3     1  UNL1        0.0066
     13 C         139.1136  146.4995  155.6615 C.3     1  UNL1        0.0049
     14 C         139.8894  146.0694  156.8711 C.3     1  UNL1        0.0275
     15 C         139.2859  147.8852  155.1136 C.3     1  UNL1        0.0053
     16 C         138.6784  149.0554  155.8288 C.3     1  UNL1        0.0322
     17 C         138.8507  150.4411  155.2809 C.3     1  UNL1        0.1422
     18 O         139.6305  150.6565  154.0177 O.3     1  UNL1       -0.3538
     19 C         140.2380  149.4863  153.3024 C.3     1  UNL1        0.1422
     20 C         140.0657  148.1006  153.8504 C.3     1  UNL1        0.0322
     21 C         143.3589  145.0899  163.9601 C.3     1  UNL1        0.1152
     22 N         142.3511  144.6432  162.9428 N.am    1  UNL1       -0.2735
     23 C         142.8028  143.9328  161.7014 C.2     1  UNL1        0.2491
     24 O         144.2622  143.6690  161.4772 O.2     1  UNL1       -0.2699
     25 C         140.8916  144.9070  163.1671 C.3     1  UNL1        0.1054
     26 C         140.2329  146.0846  162.5117 C.3     1  UNL1        0.1568
     27 O         139.1313  145.8699  161.5165 O.3     1  UNL1       -0.3802
     28 H         139.4870  145.4250  160.7314 H       1  UNL1        0.2105
     29 C         140.0908  143.9933  164.0467 C.3     1  UNL1        0.0319
     30 C         138.6248  143.8021  163.7925 C.3     1  UNL1        0.0868
     31 C         138.1621  142.7574  162.8208 C.2     1  UNL1        0.2226
     32 O         137.6702  143.1616  161.4627 O.2     1  UNL1       -0.2751
     33 N         138.1914  141.3083  163.2072 N.am    1  UNL1       -0.3017
     34 H         138.5142  141.0430  164.0986 H       1  UNL1        0.1495
     35 C         137.7286  140.2635  162.2355 C.3     1  UNL1        0.1278
     36 C         138.4024  138.9239  162.1973 C.3     1  UNL1        0.2143
     37 F         138.4580  138.1487  160.9144 F       1  UNL1       -0.2324
@<TRIPOS>BOND
     1    21    22    1
     2    22    23   am
     3    23    24    2
     4    23     1    1
     5     1     2   ar
     6     2     3   ar
     7     3     4   ar
     8     4     5   ar
     9     5     6   ar
    10     5     7   ar
    11     7     8   ar
    12     8     9   ar
    13     9    10    1
    14     8    11    1
    15    11    12    1
    16    12    13    1
    17    13    15    1
    18    15    16    1
    19    16    17    1
    20    17    18    1
    21    18    19    1
    22    19    20    1
    23    13    14    1
    24    22    25    1
    25    25    26    1
    26    26    27    1
    27    25    29    1
    28    29    30    1
    29    30    31    1
    30    31    32    2
    31    31    33   am
    32    33    35    1
    33    35    36    1
    34    36    37    1
    35     6     1   ar
    36    14     7    1
    37     9     4   ar
    38    20    15    1
    39    27    28    1
    40    33    34    1
