@<TRIPOS>MOLECULE
*****
 35 38 0 0 0
SMALL
GASTEIGER

@<TRIPOS>ATOM
      1 C         141.1942  139.6891  158.7986 C.3     1  UNL1        0.1321
      2 C         140.9889  140.1963  160.1952 C.ar    1  UNL1        0.1395
      3 N         140.2628  141.3944  160.7313 N.ar    1  UNL1       -0.2279
      4 C         140.3974  141.3878  162.2252 C.ar    1  UNL1        0.1125
      5 C         141.2065  140.1856  162.6124 C.ar    1  UNL1        0.1318
      6 N         141.5721  139.4492  161.3578 N.ar    1  UNL1       -0.3005
      7 C         142.3607  138.1949  161.1238 C.3     1  UNL1        0.1299
      8 C         142.5660  137.6877  159.7272 C.3     1  UNL1        0.1183
      9 N         141.9828  138.4348  158.5646 N.am    1  UNL1       -0.2712
     10 C         142.1882  137.9275  157.1680 C.2     1  UNL1        0.2419
     11 O         141.6049  138.6746  156.0054 O.2     1  UNL1       -0.2734
     12 C         139.8235  142.4049  163.1667 C.ar    1  UNL1        0.0205
     13 C         138.3982  142.2880  163.6191 C.ar    1  UNL1        0.0039
     14 C         137.8243  143.3050  164.5606 C.ar    1  UNL1        0.0297
     15 C         138.6758  144.4390  165.0496 C.ar    1  UNL1        0.1401
     16 F         138.1019  145.4560  165.9910 F       1  UNL1       -0.2042
     17 C         140.1011  144.5558  164.5971 C.ar    1  UNL1        0.0297
     18 C         140.6750  143.5388  163.6557 C.ar    1  UNL1        0.0039
     19 C         142.9768  136.6732  156.9340 C.3     1  UNL1        0.1517
     20 N         144.0903  136.6638  155.9290 N.3     1  UNL1       -0.3135
     21 H         143.7058  136.8005  154.9942 H       1  UNL1        0.1193
     22 H         144.5768  135.7682  155.9689 H       1  UNL1        0.1193
     23 C         139.2311  140.1067  157.1489 C.3     1  UNL1        0.0022
     24 C         140.6110  140.4362  157.6360 C.3     1  UNL1        0.0255
     25 C         141.4076  141.5127  156.9605 C.3     1  UNL1        0.0022
     26 N         141.5839  139.7893  164.0091 N.pl3   1  UNL1       -0.2980
     27 H         142.5329  139.7104  164.2589 H       1  UNL1        0.1536
     28 C         140.5155  139.5134  165.0250 C.ar    1  UNL1        0.0504
     29 C         139.3908  138.5772  164.6953 C.ar    1  UNL1        0.0170
     30 C         138.3223  138.3013  165.7113 C.ar    1  UNL1        0.0318
     31 C         138.3785  138.9615  167.0570 C.ar    1  UNL1        0.1507
     32 F         137.3101  138.6855  168.0730 F       1  UNL1       -0.2033
     33 C         139.5032  139.8976  167.3867 C.ar    1  UNL1        0.0863
     34 CL        139.5594  140.5578  168.7325 Cl      1  UNL1       -0.0799
     35 C         140.5717  140.1736  166.3708 C.ar    1  UNL1        0.0283
@<TRIPOS>BOND
     1    23    24    1
     2    24    25    1
     3     1    24    1
     4     1     2    1
     5     2     3   ar
     6     3     4   ar
     7     4    12    1
     8    12    13   ar
     9    13    14   ar
    10    14    15   ar
    11    15    16    1
    12    15    17   ar
    13    17    18   ar
    14     4     5   ar
    15     5    26    1
    16    26    28    1
    17    28    29   ar
    18    29    30   ar
    19    30    31   ar
    20    31    32    1
    21    31    33   ar
    22    33    34    1
    23    33    35   ar
    24     5     6   ar
    25     6     7    1
    26     7     8    1
    27     8     9    1
    28     9    10   am
    29    10    11    2
    30    10    19    1
    31    19    20    1
    32     9     1    1
    33     6     2   ar
    34    18    12   ar
    35    35    28   ar
    36    26    27    1
    37    20    21    1
    38    20    22    1
@<TRIPOS>MOLECULE
*****
 35 38 0 0 0
SMALL
GASTEIGER

@<TRIPOS>ATOM
      1 C         141.7734  140.3365  159.6355 C.3     1  UNL1        0.1321
      2 C         141.5374  139.9245  161.0583 C.ar    1  UNL1        0.1395
      3 N         140.2789  139.7161  161.8473 N.ar    1  UNL1       -0.2279
      4 C         140.6656  139.3029  163.2365 C.ar    1  UNL1        0.1125
      5 C         142.1633  139.2560  163.3060 C.ar    1  UNL1        0.1318
      6 N         142.7021  139.6402  161.9598 N.ar    1  UNL1       -0.3005
      7 C         144.1027  139.7679  161.4385 C.3     1  UNL1        0.1299
      8 C         144.3387  140.1799  160.0156 C.3     1  UNL1        0.1183
      9 N         143.1741  140.4642  159.1141 N.am    1  UNL1       -0.2712
     10 C         143.4101  140.8762  157.6912 C.2     1  UNL1        0.2419
     11 O         142.2454  141.1605  156.7897 O.2     1  UNL1       -0.2734
     12 C         139.7207  138.9913  164.3590 C.ar    1  UNL1        0.0205
     13 C         139.4023  137.5651  164.6972 C.ar    1  UNL1        0.0039
     14 C         138.4573  137.2535  165.8197 C.ar    1  UNL1        0.0297
     15 C         137.8308  138.3682  166.6040 C.ar    1  UNL1        0.1401
     16 F         136.8859  138.0566  167.7265 F       1  UNL1       -0.2042
     17 C         138.1493  139.7944  166.2657 C.ar    1  UNL1        0.0297
     18 C         139.0942  140.1060  165.1432 C.ar    1  UNL1        0.0039
     19 C         144.8107  141.0039  157.1699 C.3     1  UNL1        0.1517
     20 N         145.4442  139.8606  156.4337 N.3     1  UNL1       -0.3135
     21 H         145.5702  139.0741  157.0709 H       1  UNL1        0.1193
     22 H         146.3513  140.1517  156.0693 H       1  UNL1        0.1193
     23 C         140.0653  142.0149  158.6278 C.3     1  UNL1        0.0022
     24 C         140.6087  140.6209  158.7340 C.3     1  UNL1        0.0255
     25 C         139.9875  139.5112  157.9387 C.3     1  UNL1        0.0022
     26 N         142.9790  138.8893  164.5102 N.pl3   1  UNL1       -0.2980
     27 H         143.5552  138.0913  164.4900 H       1  UNL1        0.1536
     28 C         142.9168  139.7383  165.7451 C.ar    1  UNL1        0.0504
     29 C         143.0628  141.2275  165.6397 C.ar    1  UNL1        0.0170
     30 C         143.0006  142.0767  166.8746 C.ar    1  UNL1        0.0318
     31 C         142.7923  141.4366  168.2151 C.ar    1  UNL1        0.1507
     32 F         142.7301  142.2857  169.4501 F       1  UNL1       -0.2033
     33 C         142.6463  139.9475  168.3206 C.ar    1  UNL1        0.0863
     34 CL        142.4380  139.3075  169.6612 Cl      1  UNL1       -0.0799
     35 C         142.7085  139.0983  167.0857 C.ar    1  UNL1        0.0283
@<TRIPOS>BOND
     1    23    24    1
     2    24    25    1
     3     1    24    1
     4     1     2    1
     5     2     3   ar
     6     3     4   ar
     7     4    12    1
     8    12    13   ar
     9    13    14   ar
    10    14    15   ar
    11    15    16    1
    12    15    17   ar
    13    17    18   ar
    14     4     5   ar
    15     5    26    1
    16    26    28    1
    17    28    29   ar
    18    29    30   ar
    19    30    31   ar
    20    31    32    1
    21    31    33   ar
    22    33    34    1
    23    33    35   ar
    24     5     6   ar
    25     6     7    1
    26     7     8    1
    27     8     9    1
    28     9    10   am
    29    10    11    2
    30    10    19    1
    31    19    20    1
    32     9     1    1
    33     6     2   ar
    34    18    12   ar
    35    35    28   ar
    36    26    27    1
    37    20    21    1
    38    20    22    1
@<TRIPOS>MOLECULE
*****
 35 38 0 0 0
SMALL
GASTEIGER

@<TRIPOS>ATOM
      1 C         139.5394  144.1449  156.5737 C.3     1  UNL1        0.1321
      2 C         139.7439  144.0208  158.0544 C.ar    1  UNL1        0.1395
      3 N         139.0664  143.1779  159.0940 N.ar    1  UNL1       -0.2279
      4 C         139.6988  143.4803  160.4201 C.ar    1  UNL1        0.1125
      5 C         140.7671  144.5099  160.2002 C.ar    1  UNL1        0.1318
      6 N         140.7950  144.8440  158.7381 N.ar    1  UNL1       -0.3005
      7 C         141.6417  145.7914  157.9410 C.3     1  UNL1        0.1299
      8 C         141.4372  145.9156  156.4602 C.3     1  UNL1        0.1183
      9 N         140.3861  145.0924  155.7765 N.am    1  UNL1       -0.2712
     10 C         140.1817  145.2166  154.2957 C.2     1  UNL1        0.2419
     11 O         139.1305  144.3934  153.6120 O.2     1  UNL1       -0.2734
     12 C         139.3280  142.8615  161.7353 C.ar    1  UNL1        0.0205
     13 C         140.1651  141.7557  162.3065 C.ar    1  UNL1        0.0039
     14 C         139.7943  141.1370  163.6217 C.ar    1  UNL1        0.0297
     15 C         138.5864  141.6241  164.3657 C.ar    1  UNL1        0.1401
     16 F         138.2155  141.0054  165.6808 F       1  UNL1       -0.2042
     17 C         137.7493  142.7300  163.7945 C.ar    1  UNL1        0.0297
     18 C         138.1201  143.3487  162.4793 C.ar    1  UNL1        0.0039
     19 C         141.0284  146.1640  153.4986 C.3     1  UNL1        0.1517
     20 N         140.4584  147.4726  153.0372 N.3     1  UNL1       -0.3135
     21 H         139.7137  147.2999  152.3620 H       1  UNL1        0.1193
     22 H         141.1932  148.0277  152.5984 H       1  UNL1        0.1193
     23 C         138.8218  141.9498  155.3836 C.3     1  UNL1        0.0022
     24 C         138.4883  143.3217  155.8900 C.3     1  UNL1        0.0255
     25 C         137.1036  143.8704  155.7128 C.3     1  UNL1        0.0022
     26 N         141.6523  145.1017  161.2567 N.pl3   1  UNL1       -0.2980
     27 H         141.5153  146.0317  161.5494 H       1  UNL1        0.1536
     28 C         142.7459  144.2767  161.8675 C.ar    1  UNL1        0.0504
     29 C         143.4714  143.2599  161.0368 C.ar    1  UNL1        0.0170
     30 C         144.5652  142.4348  161.6474 C.ar    1  UNL1        0.0318
     31 C         144.9334  142.6264  163.0889 C.ar    1  UNL1        0.1507
     32 F         146.0271  141.8013  163.6996 F       1  UNL1       -0.2033
     33 C         144.2080  143.6431  163.9195 C.ar    1  UNL1        0.0863
     34 CL        144.5763  143.8346  165.3610 Cl      1  UNL1       -0.0799
     35 C         143.1142  144.4682  163.3089 C.ar    1  UNL1        0.0283
@<TRIPOS>BOND
     1    23    24    1
     2    24    25    1
     3     1    24    1
     4     1     2    1
     5     2     3   ar
     6     3     4   ar
     7     4    12    1
     8    12    13   ar
     9    13    14   ar
    10    14    15   ar
    11    15    16    1
    12    15    17   ar
    13    17    18   ar
    14     4     5   ar
    15     5    26    1
    16    26    28    1
    17    28    29   ar
    18    29    30   ar
    19    30    31   ar
    20    31    32    1
    21    31    33   ar
    22    33    34    1
    23    33    35   ar
    24     5     6   ar
    25     6     7    1
    26     7     8    1
    27     8     9    1
    28     9    10   am
    29    10    11    2
    30    10    19    1
    31    19    20    1
    32     9     1    1
    33     6     2   ar
    34    18    12   ar
    35    35    28   ar
    36    26    27    1
    37    20    21    1
    38    20    22    1
@<TRIPOS>MOLECULE
*****
 35 38 0 0 0
SMALL
GASTEIGER

@<TRIPOS>ATOM
      1 C         142.4820  140.9249  158.4188 C.3     1  UNL1        0.1321
      2 C         141.6362  141.0913  159.6464 C.ar    1  UNL1        0.1395
      3 N         141.3212  142.2884  160.4936 N.ar    1  UNL1       -0.2279
      4 C         140.4113  141.8462  161.6010 C.ar    1  UNL1        0.1125
      5 C         140.1639  140.3757  161.4383 C.ar    1  UNL1        0.1318
      6 N         140.9210  139.9092  160.2303 N.ar    1  UNL1       -0.3005
      7 C         141.0514  138.5606  159.5866 C.3     1  UNL1        0.1299
      8 C         141.8972  138.3942  158.3590 C.3     1  UNL1        0.1183
      9 N         142.6124  139.5764  157.7752 N.am    1  UNL1       -0.2712
     10 C         143.4582  139.4100  156.5475 C.2     1  UNL1        0.2419
     11 O         144.1734  140.5921  155.9636 O.2     1  UNL1       -0.2734
     12 C         139.8476  142.7209  162.6814 C.ar    1  UNL1        0.0205
     13 C         140.6864  143.0751  163.8735 C.ar    1  UNL1        0.0039
     14 C         140.1227  143.9497  164.9539 C.ar    1  UNL1        0.0297
     15 C         138.7204  144.4702  164.8423 C.ar    1  UNL1        0.1401
     16 F         138.1568  145.3448  165.9227 F       1  UNL1       -0.2042
     17 C         137.8817  144.1160  163.6502 C.ar    1  UNL1        0.0297
     18 C         138.4453  143.2413  162.5698 C.ar    1  UNL1        0.0039
     19 C         143.5886  138.0614  155.9038 C.3     1  UNL1        0.1517
     20 N         144.9154  137.6114  155.3677 N.3     1  UNL1       -0.3135
     21 H         145.1824  138.2028  154.5806 H       1  UNL1        0.1193
     22 H         144.8455  136.6425  155.0566 H       1  UNL1        0.1193
     23 C         142.5250  142.9505  156.7925 C.3     1  UNL1        0.0022
     24 C         143.1972  142.1071  157.8350 C.3     1  UNL1        0.0255
     25 C         144.5846  142.4458  158.2935 C.3     1  UNL1        0.0022
     26 N         139.3095  139.5217  162.3275 N.pl3   1  UNL1       -0.2980
     27 H         138.6246  138.9335  161.9348 H       1  UNL1        0.1536
     28 C         139.4985  139.5638  163.8148 C.ar    1  UNL1        0.0504
     29 C         138.3395  139.8911  164.7092 C.ar    1  UNL1        0.0170
     30 C         138.5285  139.9332  166.1967 C.ar    1  UNL1        0.0318
     31 C         139.8764  139.6481  166.7898 C.ar    1  UNL1        0.1507
     32 F         140.0654  139.6902  168.2772 F       1  UNL1       -0.2033
     33 C         141.0353  139.3208  165.8955 C.ar    1  UNL1        0.0863
     34 CL        142.3832  139.0357  166.4887 Cl      1  UNL1       -0.0799
     35 C         140.8464  139.2787  164.4080 C.ar    1  UNL1        0.0283
@<TRIPOS>BOND
     1    23    24    1
     2    24    25    1
     3     1    24    1
     4     1     2    1
     5     2     3   ar
     6     3     4   ar
     7     4    12    1
     8    12    13   ar
     9    13    14   ar
    10    14    15   ar
    11    15    16    1
    12    15    17   ar
    13    17    18   ar
    14     4     5   ar
    15     5    26    1
    16    26    28    1
    17    28    29   ar
    18    29    30   ar
    19    30    31   ar
    20    31    32    1
    21    31    33   ar
    22    33    34    1
    23    33    35   ar
    24     5     6   ar
    25     6     7    1
    26     7     8    1
    27     8     9    1
    28     9    10   am
    29    10    11    2
    30    10    19    1
    31    19    20    1
    32     9     1    1
    33     6     2   ar
    34    18    12   ar
    35    35    28   ar
    36    26    27    1
    37    20    21    1
    38    20    22    1
@<TRIPOS>MOLECULE
*****
 35 38 0 0 0
SMALL
GASTEIGER

@<TRIPOS>ATOM
      1 C         142.6649  139.9501  159.1670 C.3     1  UNL1        0.1321
      2 C         142.1698  140.0325  160.5805 C.ar    1  UNL1        0.1395
      3 N         141.0546  139.3293  161.2959 N.ar    1  UNL1       -0.2279
      4 C         141.0312  139.8195  162.7133 C.ar    1  UNL1        0.1125
      5 C         142.1320  140.8258  162.8739 C.ar    1  UNL1        0.1318
      6 N         142.8356  140.9574  161.5557 N.ar    1  UNL1       -0.3005
      7 C         143.9967  141.7999  161.1175 C.3     1  UNL1        0.1299
      8 C         144.4918  141.7176  159.7040 C.3     1  UNL1        0.1183
      9 N         143.8259  140.7927  158.7288 N.am    1  UNL1       -0.2712
     10 C         144.3211  140.7103  157.3152 C.2     1  UNL1        0.2419
     11 O         143.6552  139.7854  156.3399 O.2     1  UNL1       -0.2734
     12 C         140.0750  139.3806  163.7824 C.ar    1  UNL1        0.0205
     13 C         139.1059  140.3626  164.3711 C.ar    1  UNL1        0.0039
     14 C         138.1497  139.9237  165.4403 C.ar    1  UNL1        0.0297
     15 C         138.1625  138.5028  165.9207 C.ar    1  UNL1        0.1401
     16 F         137.2063  138.0639  166.9898 F       1  UNL1       -0.2042
     17 C         139.1316  137.5208  165.3320 C.ar    1  UNL1        0.0297
     18 C         140.0878  137.9597  164.2629 C.ar    1  UNL1        0.0039
     19 C         145.4822  141.5529  156.8770 C.3     1  UNL1        0.1517
     20 N         146.5294  140.9744  155.9720 N.3     1  UNL1       -0.3135
     21 H         147.0312  140.2341  156.4623 H       1  UNL1        0.1193
     22 H         147.1850  141.7066  155.6992 H       1  UNL1        0.1193
     23 C         140.8269  139.5021  157.3863 C.3     1  UNL1        0.0022
     24 C         141.9990  139.0252  158.1917 C.3     1  UNL1        0.0255
     25 C         142.5052  137.6235  158.0218 C.3     1  UNL1        0.0022
     26 N         142.4698  141.5698  164.1318 N.pl3   1  UNL1       -0.2980
     27 H         142.6476  142.5375  164.0986 H       1  UNL1        0.1536
     28 C         142.5367  140.8394  165.4402 C.ar    1  UNL1        0.0504
     29 C         141.8525  141.4037  166.6500 C.ar    1  UNL1        0.0170
     30 C         141.9194  140.6734  167.9585 C.ar    1  UNL1        0.0318
     31 C         142.6705  139.3787  168.0572 C.ar    1  UNL1        0.1507
     32 F         142.7374  138.6484  169.3657 F       1  UNL1       -0.2033
     33 C         143.3547  138.8145  166.8475 C.ar    1  UNL1        0.0863
     34 CL        144.1057  137.5198  166.9463 Cl      1  UNL1       -0.0799
     35 C         143.2878  139.5448  165.5390 C.ar    1  UNL1        0.0283
@<TRIPOS>BOND
     1    23    24    1
     2    24    25    1
     3     1    24    1
     4     1     2    1
     5     2     3   ar
     6     3     4   ar
     7     4    12    1
     8    12    13   ar
     9    13    14   ar
    10    14    15   ar
    11    15    16    1
    12    15    17   ar
    13    17    18   ar
    14     4     5   ar
    15     5    26    1
    16    26    28    1
    17    28    29   ar
    18    29    30   ar
    19    30    31   ar
    20    31    32    1
    21    31    33   ar
    22    33    34    1
    23    33    35   ar
    24     5     6   ar
    25     6     7    1
    26     7     8    1
    27     8     9    1
    28     9    10   am
    29    10    11    2
    30    10    19    1
    31    19    20    1
    32     9     1    1
    33     6     2   ar
    34    18    12   ar
    35    35    28   ar
    36    26    27    1
    37    20    21    1
    38    20    22    1
@<TRIPOS>MOLECULE
*****
 35 38 0 0 0
SMALL
GASTEIGER

@<TRIPOS>ATOM
      1 C         141.3741  139.4196  158.5912 C.3     1  UNL1        0.1321
      2 C         141.2378  139.4378  160.0848 C.ar    1  UNL1        0.1395
      3 N         140.0845  139.1243  160.9913 N.ar    1  UNL1       -0.2279
      4 C         140.5412  139.3191  162.4068 C.ar    1  UNL1        0.1125
      5 C         141.9767  139.7531  162.3750 C.ar    1  UNL1        0.1318
      6 N         142.4072  139.8265  160.9400 N.ar    1  UNL1       -0.3005
      7 C         143.7130  140.1969  160.3016 C.3     1  UNL1        0.1299
      8 C         143.8493  140.1787  158.8079 C.3     1  UNL1        0.1183
      9 N         142.6799  139.7901  157.9527 N.am    1  UNL1       -0.2712
     10 C         142.8163  139.7719  156.4590 C.2     1  UNL1        0.2419
     11 O         141.6468  139.3833  155.6038 O.2     1  UNL1       -0.2734
     12 C         139.7085  139.1157  163.6378 C.ar    1  UNL1        0.0205
     13 C         139.0679  140.2921  164.3127 C.ar    1  UNL1        0.0039
     14 C         138.2353  140.0887  165.5437 C.ar    1  UNL1        0.0297
     15 C         138.0433  138.7089  166.0998 C.ar    1  UNL1        0.1401
     16 F         137.2107  138.5055  167.3308 F       1  UNL1       -0.2042
     17 C         138.6840  137.5325  165.4248 C.ar    1  UNL1        0.0297
     18 C         139.5166  137.7359  164.1938 C.ar    1  UNL1        0.0039
     19 C         144.1220  140.1424  155.8206 C.3     1  UNL1        0.1517
     20 N         145.1848  139.1014  155.6280 N.3     1  UNL1       -0.3135
     21 H         145.5226  138.7880  156.5380 H       1  UNL1        0.1193
     22 H         145.9590  139.5001  155.0968 H       1  UNL1        0.1193
     23 C         139.1937  140.0635  157.3337 C.3     1  UNL1        0.0022
     24 C         140.2047  139.0310  157.7360 C.3     1  UNL1        0.0255
     25 C         140.0462  137.6099  157.2830 C.3     1  UNL1        0.0022
     26 N         142.8316  140.0599  163.5688 N.pl3   1  UNL1       -0.2980
     27 H         143.1687  139.3277  164.1340 H       1  UNL1        0.1536
     28 C         143.1729  141.4821  163.9013 C.ar    1  UNL1        0.0504
     29 C         144.4358  141.7955  164.6477 C.ar    1  UNL1        0.0170
     30 C         144.7772  143.2178  164.9803 C.ar    1  UNL1        0.0318
     31 C         143.8556  144.3267  164.5665 C.ar    1  UNL1        0.1507
     32 F         144.1970  145.7489  164.8991 F       1  UNL1       -0.2033
     33 C         142.5928  144.0133  163.8203 C.ar    1  UNL1        0.0863
     34 CL        141.6713  145.1222  163.4066 Cl      1  UNL1       -0.0799
     35 C         142.2514  142.5910  163.4877 C.ar    1  UNL1        0.0283
@<TRIPOS>BOND
     1    23    24    1
     2    24    25    1
     3     1    24    1
     4     1     2    1
     5     2     3   ar
     6     3     4   ar
     7     4    12    1
     8    12    13   ar
     9    13    14   ar
    10    14    15   ar
    11    15    16    1
    12    15    17   ar
    13    17    18   ar
    14     4     5   ar
    15     5    26    1
    16    26    28    1
    17    28    29   ar
    18    29    30   ar
    19    30    31   ar
    20    31    32    1
    21    31    33   ar
    22    33    34    1
    23    33    35   ar
    24     5     6   ar
    25     6     7    1
    26     7     8    1
    27     8     9    1
    28     9    10   am
    29    10    11    2
    30    10    19    1
    31    19    20    1
    32     9     1    1
    33     6     2   ar
    34    18    12   ar
    35    35    28   ar
    36    26    27    1
    37    20    21    1
    38    20    22    1
@<TRIPOS>MOLECULE
*****
 35 38 0 0 0
SMALL
GASTEIGER

@<TRIPOS>ATOM
      1 C         143.8027  142.8789  157.2165 C.3     1  UNL1        0.1321
      2 C         143.3802  143.2086  158.6174 C.ar    1  UNL1        0.1395
      3 N         143.8651  142.7252  159.9521 N.ar    1  UNL1       -0.2279
      4 C         143.0590  143.4117  161.0146 C.ar    1  UNL1        0.1125
      5 C         142.0758  144.3193  160.3366 C.ar    1  UNL1        0.1318
      6 N         142.2743  144.1938  158.8551 N.ar    1  UNL1       -0.3005
      7 C         141.5910  144.8494  157.6918 C.3     1  UNL1        0.1299
      8 C         142.0135  144.5197  156.2908 C.3     1  UNL1        0.1183
      9 N         143.1194  143.5344  156.0532 N.am    1  UNL1       -0.2712
     10 C         143.5419  143.2048  154.6521 C.2     1  UNL1        0.2419
     11 O         144.6477  142.2195  154.4144 O.2     1  UNL1       -0.2734
     12 C         143.2095  143.2236  162.4951 C.ar    1  UNL1        0.0205
     13 C         144.0501  144.1777  163.2907 C.ar    1  UNL1        0.0039
     14 C         144.2007  143.9895  164.7712 C.ar    1  UNL1        0.0297
     15 C         143.5107  142.8473  165.4561 C.ar    1  UNL1        0.1401
     16 F         143.6613  142.6592  166.9366 F       1  UNL1       -0.2042
     17 C         142.6701  141.8932  164.6605 C.ar    1  UNL1        0.0297
     18 C         142.5195  142.0814  163.1800 C.ar    1  UNL1        0.0039
     19 C         142.8586  143.8603  153.4888 C.3     1  UNL1        0.1517
     20 N         143.3650  145.1706  152.9626 N.3     1  UNL1       -0.3135
     21 H         143.2323  145.8946  153.6686 H       1  UNL1        0.1193
     22 H         142.8494  145.4201  152.1186 H       1  UNL1        0.1193
     23 C         146.3314  142.3640  156.9161 C.3     1  UNL1        0.0022
     24 C         144.9085  141.8937  156.9788 C.3     1  UNL1        0.0255
     25 C         144.5914  140.4381  156.8039 C.3     1  UNL1        0.0022
     26 N         141.0707  145.1982  161.0201 N.pl3   1  UNL1       -0.2980
     27 H         141.0798  146.1702  160.8639 H       1  UNL1        0.1536
     28 C         140.0516  144.5963  161.9415 C.ar    1  UNL1        0.0504
     29 C         139.2031  143.4504  161.4754 C.ar    1  UNL1        0.0170
     30 C         138.1839  142.8484  162.3967 C.ar    1  UNL1        0.0318
     31 C         138.0133  143.3922  163.7843 C.ar    1  UNL1        0.1507
     32 F         136.9942  142.7902  164.7056 F       1  UNL1       -0.2033
     33 C         138.8618  144.5380  164.2503 C.ar    1  UNL1        0.0863
     34 CL        138.6911  145.0817  165.6379 Cl      1  UNL1       -0.0799
     35 C         139.8809  145.1400  163.3290 C.ar    1  UNL1        0.0283
@<TRIPOS>BOND
     1    23    24    1
     2    24    25    1
     3     1    24    1
     4     1     2    1
     5     2     3   ar
     6     3     4   ar
     7     4    12    1
     8    12    13   ar
     9    13    14   ar
    10    14    15   ar
    11    15    16    1
    12    15    17   ar
    13    17    18   ar
    14     4     5   ar
    15     5    26    1
    16    26    28    1
    17    28    29   ar
    18    29    30   ar
    19    30    31   ar
    20    31    32    1
    21    31    33   ar
    22    33    34    1
    23    33    35   ar
    24     5     6   ar
    25     6     7    1
    26     7     8    1
    27     8     9    1
    28     9    10   am
    29    10    11    2
    30    10    19    1
    31    19    20    1
    32     9     1    1
    33     6     2   ar
    34    18    12   ar
    35    35    28   ar
    36    26    27    1
    37    20    21    1
    38    20    22    1
@<TRIPOS>MOLECULE
*****
 35 38 0 0 0
SMALL
GASTEIGER

@<TRIPOS>ATOM
      1 C         139.6618  143.9053  157.2305 C.3     1  UNL1        0.1321
      2 C         139.3893  143.4433  158.6312 C.ar    1  UNL1        0.1395
      3 N         139.7259  144.0366  159.9672 N.ar    1  UNL1       -0.2279
      4 C         139.1929  143.1206  161.0288 C.ar    1  UNL1        0.1125
      5 C         138.5269  141.9612  160.3489 C.ar    1  UNL1        0.1318
      6 N         138.6483  142.1606  158.8671 N.ar    1  UNL1       -0.3005
      7 C         138.1797  141.3400  157.7023 C.3     1  UNL1        0.1299
      8 C         138.4523  141.8020  156.3015 C.3     1  UNL1        0.1183
      9 N         139.1933  143.0847  156.0656 N.am    1  UNL1       -0.2712
     10 C         139.4658  143.5467  154.6647 C.2     1  UNL1        0.2419
     11 O         140.2068  144.8294  154.4288 O.2     1  UNL1       -0.2734
     12 C         139.3061  143.3277  162.5101 C.ar    1  UNL1        0.0205
     13 C         140.4518  142.7234  163.2665 C.ar    1  UNL1        0.0039
     14 C         140.5649  142.9305  164.7478 C.ar    1  UNL1        0.0297
     15 C         139.5324  143.7418  165.4727 C.ar    1  UNL1        0.1401
     16 F         139.6456  143.9488  166.9541 F       1  UNL1       -0.2042
     17 C         138.3867  144.3460  164.7163 C.ar    1  UNL1        0.0297
     18 C         138.2735  144.1390  163.2350 C.ar    1  UNL1        0.0039
     19 C         138.9973  142.7260  153.4998 C.3     1  UNL1        0.1517
     20 N         137.6536  142.9910  152.8878 N.3     1  UNL1       -0.3135
     21 H         136.9223  142.7639  153.5617 H       1  UNL1        0.1193
     22 H         137.5396  142.4134  152.0548 H       1  UNL1        0.1193
     23 C         139.6459  146.4735  156.8379 C.3     1  UNL1        0.0022
     24 C         140.4028  145.1880  156.9946 C.3     1  UNL1        0.0255
     25 C         141.9006  145.1852  156.9153 C.3     1  UNL1        0.0022
     26 N         137.8571  140.8053  161.0310 N.pl3   1  UNL1       -0.2980
     27 H         136.8746  140.7461  161.0483 H       1  UNL1        0.1536
     28 C         138.6843  139.7396  161.6866 C.ar    1  UNL1        0.0504
     29 C         139.8834  139.1800  160.9801 C.ar    1  UNL1        0.0170
     30 C         140.7106  138.1142  161.6356 C.ar    1  UNL1        0.0318
     31 C         140.3388  137.6080  162.9978 C.ar    1  UNL1        0.1507
     32 F         141.1660  136.5422  163.6534 F       1  UNL1       -0.2033
     33 C         139.1397  138.1675  163.7043 C.ar    1  UNL1        0.0863
     34 CL        138.7680  137.6613  165.0665 Cl      1  UNL1       -0.0799
     35 C         138.3125  139.2333  163.0488 C.ar    1  UNL1        0.0283
@<TRIPOS>BOND
     1    23    24    1
     2    24    25    1
     3     1    24    1
     4     1     2    1
     5     2     3   ar
     6     3     4   ar
     7     4    12    1
     8    12    13   ar
     9    13    14   ar
    10    14    15   ar
    11    15    16    1
    12    15    17   ar
    13    17    18   ar
    14     4     5   ar
    15     5    26    1
    16    26    28    1
    17    28    29   ar
    18    29    30   ar
    19    30    31   ar
    20    31    32    1
    21    31    33   ar
    22    33    34    1
    23    33    35   ar
    24     5     6   ar
    25     6     7    1
    26     7     8    1
    27     8     9    1
    28     9    10   am
    29    10    11    2
    30    10    19    1
    31    19    20    1
    32     9     1    1
    33     6     2   ar
    34    18    12   ar
    35    35    28   ar
    36    26    27    1
    37    20    21    1
    38    20    22    1
@<TRIPOS>MOLECULE
*****
 35 38 0 0 0
SMALL
GASTEIGER

@<TRIPOS>ATOM
      1 C         143.2959  139.7540  157.0856 C.3     1  UNL1        0.1321
      2 C         143.3734  139.7693  158.5835 C.ar    1  UNL1        0.1395
      3 N         143.6629  140.8684  159.5623 N.ar    1  UNL1       -0.2279
      4 C         143.6037  140.2865  160.9436 C.ar    1  UNL1        0.1125
      5 C         143.2777  138.8278  160.8184 C.ar    1  UNL1        0.1318
      6 N         143.1354  138.5081  159.3597 N.ar    1  UNL1       -0.3005
      7 C         142.8198  137.2315  158.6381 C.3     1  UNL1        0.1299
      8 C         142.7423  137.2162  157.1403 C.3     1  UNL1        0.1183
      9 N         142.9803  138.4774  156.3640 N.am    1  UNL1       -0.2712
     10 C         142.9028  138.4621  154.8660 C.2     1  UNL1        0.2419
     11 O         143.1408  139.7233  154.0897 O.2     1  UNL1       -0.2734
     12 C         143.8307  141.0324  162.2250 C.ar    1  UNL1        0.0205
     13 C         145.2281  141.3200  162.6881 C.ar    1  UNL1        0.0039
     14 C         145.4551  142.0658  163.9695 C.ar    1  UNL1        0.0297
     15 C         144.2846  142.5242  164.7880 C.ar    1  UNL1        0.1401
     16 F         144.5116  143.2701  166.0694 F       1  UNL1       -0.2042
     17 C         142.8872  142.2367  164.3249 C.ar    1  UNL1        0.0297
     18 C         142.6602  141.4908  163.0435 C.ar    1  UNL1        0.0039
     19 C         142.5872  137.1855  154.1444 C.3     1  UNL1        0.1517
     20 N         142.3133  137.2055  152.6697 N.3     1  UNL1       -0.3135
     21 H         141.4510  137.7202  152.4910 H       1  UNL1        0.1193
     22 H         142.2151  136.2491  152.3291 H       1  UNL1        0.1193
     23 C         144.9203  141.3678  155.8581 C.3     1  UNL1        0.0022
     24 C         143.5340  141.0152  156.3093 C.3     1  UNL1        0.0255
     25 C         142.3857  141.9239  155.9842 C.3     1  UNL1        0.0022
     26 N         143.1214  137.8587  161.9526 N.pl3   1  UNL1       -0.2980
     27 H         143.8331  137.2058  162.1438 H       1  UNL1        0.1536
     28 C         141.8810  137.8844  162.7956 C.ar    1  UNL1        0.0504
     29 C         141.9911  137.9295  164.2909 C.ar    1  UNL1        0.0170
     30 C         140.7507  137.9552  165.1339 C.ar    1  UNL1        0.0318
     31 C         139.4001  137.9357  164.4816 C.ar    1  UNL1        0.1507
     32 F         138.1597  137.9614  165.3246 F       1  UNL1       -0.2033
     33 C         139.2900  137.8906  162.9863 C.ar    1  UNL1        0.0863
     34 CL        137.9393  137.8712  162.3341 Cl      1  UNL1       -0.0799
     35 C         140.5304  137.8649  162.1433 C.ar    1  UNL1        0.0283
@<TRIPOS>BOND
     1    23    24    1
     2    24    25    1
     3     1    24    1
     4     1     2    1
     5     2     3   ar
     6     3     4   ar
     7     4    12    1
     8    12    13   ar
     9    13    14   ar
    10    14    15   ar
    11    15    16    1
    12    15    17   ar
    13    17    18   ar
    14     4     5   ar
    15     5    26    1
    16    26    28    1
    17    28    29   ar
    18    29    30   ar
    19    30    31   ar
    20    31    32    1
    21    31    33   ar
    22    33    34    1
    23    33    35   ar
    24     5     6   ar
    25     6     7    1
    26     7     8    1
    27     8     9    1
    28     9    10   am
    29    10    11    2
    30    10    19    1
    31    19    20    1
    32     9     1    1
    33     6     2   ar
    34    18    12   ar
    35    35    28   ar
    36    26    27    1
    37    20    21    1
    38    20    22    1
