@<TRIPOS>MOLECULE
*****
 28 31 0 0 0
SMALL
GASTEIGER

@<TRIPOS>ATOM
      1 C         142.9654  141.7775  168.2012 C.ar    1  UNL1        0.1281
      2 N         141.9258  140.6973  168.1537 N.ar    1  UNL1       -0.1588
      3 N         141.5562  140.4725  166.7174 N.ar    1  UNL1       -0.2292
      4 C         142.3674  141.4138  165.8772 C.ar    1  UNL1        0.0860
      5 C         142.4255  141.6407  164.3957 C.ar    1  UNL1        0.0339
      6 C         143.3546  142.6741  163.8311 C.ar    1  UNL1        0.0518
      7 C         144.2255  143.4807  164.7481 C.ar    1  UNL1        0.0148
      8 C         144.1674  143.2538  166.2297 C.ar    1  UNL1        0.0048
      9 C         143.2383  142.2204  166.7942 C.ar    1  UNL1        0.0430
     10 C         140.5518  139.4806  166.2103 C.ar    1  UNL1        0.0828
     11 C         140.9510  138.4716  165.1745 C.ar    1  UNL1        0.0191
     12 C         139.9465  137.4797  164.6674 C.ar    1  UNL1        0.0015
     13 C         138.5429  137.4966  165.1961 C.ar    1  UNL1        0.0001
     14 C         138.1437  138.5055  166.2318 C.ar    1  UNL1        0.0015
     15 C         139.1482  139.4974  166.7389 C.ar    1  UNL1        0.0191
     16 N         143.4127  142.9011  162.3495 N.am    1  UNL1       -0.2839
     17 C         142.3557  143.7242  161.6747 C.2     1  UNL1        0.2257
     18 O         141.2406  144.3204  162.4817 O.2     1  UNL1       -0.2748
     19 H         144.1446  142.5098  161.8199 H       1  UNL1        0.1549
     20 C         142.4138  143.9511  160.1932 C.3     1  UNL1        0.0796
     21 C         141.6002  145.0463  159.5697 C.3     1  UNL1        0.0262
     22 C         141.6584  145.2732  158.0881 C.3     1  UNL1        0.0691
     23 N         142.5301  144.4050  157.2300 N.3     1  UNL1       -0.2974
     24 C         143.3437  143.3099  157.8535 C.3     1  UNL1        0.0691
     25 C         143.2856  143.0829  159.3350 C.3     1  UNL1        0.0262
     26 H         143.1859  145.0248  156.7544 H       1  UNL1        0.1232
     27 C         142.7914  143.0197  170.4765 C.3     1  UNL1        0.0757
     28 S         143.6176  142.3198  169.4383 S.3     1  UNL1       -0.0923
@<TRIPOS>BOND
     1    27    28    1
     2    28     1    1
     3     1     2   ar
     4     2     3   ar
     5     3    10    1
     6    10    11   ar
     7    11    12   ar
     8    12    13   ar
     9    13    14   ar
    10    14    15   ar
    11     3     4   ar
    12     4     5   ar
    13     5     6   ar
    14     6    16    1
    15    16    17   am
    16    17    18    2
    17    17    20    1
    18    20    21    1
    19    21    22    1
    20    22    23    1
    21    23    24    1
    22    24    25    1
    23     6     7   ar
    24     7     8   ar
    25     8     9   ar
    26     9     1   ar
    27    15    10   ar
    28     9     4   ar
    29    25    20    1
    30    16    19    1
    31    23    26    1
@<TRIPOS>MOLECULE
*****
 28 31 0 0 0
SMALL
GASTEIGER

@<TRIPOS>ATOM
      1 C         142.0573  139.9560  167.6582 C.ar    1  UNL1        0.1281
      2 N         140.9120  140.9209  167.5730 N.ar    1  UNL1       -0.1588
      3 N         140.7423  141.3131  166.1352 N.ar    1  UNL1       -0.2292
      4 C         141.7827  140.5906  165.3317 C.ar    1  UNL1        0.0860
      5 C         142.0950  140.5881  163.8646 C.ar    1  UNL1        0.0339
      6 C         143.2200  139.7468  163.3388 C.ar    1  UNL1        0.0518
      7 C         144.0327  138.9080  164.2800 C.ar    1  UNL1        0.0148
      8 C         143.7204  138.9106  165.7471 C.ar    1  UNL1        0.0048
      9 C         142.5954  139.7518  166.2730 C.ar    1  UNL1        0.0430
     10 C         139.7129  142.2614  165.5955 C.ar    1  UNL1        0.0828
     11 C         139.8208  143.7294  165.8846 C.ar    1  UNL1        0.0191
     12 C         138.7914  144.6776  165.3449 C.ar    1  UNL1        0.0015
     13 C         137.6542  144.1579  164.5162 C.ar    1  UNL1        0.0001
     14 C         137.5464  142.6900  164.2272 C.ar    1  UNL1        0.0015
     15 C         138.5757  141.7418  164.7669 C.ar    1  UNL1        0.0191
     16 N         143.5323  139.7442  161.8716 N.am    1  UNL1       -0.2839
     17 C         142.7086  138.9156  160.9309 C.2     1  UNL1        0.2257
     18 O         141.5725  138.0896  161.4574 O.2     1  UNL1       -0.2748
     19 H         144.2780  140.2864  161.5261 H       1  UNL1        0.1549
     20 C         143.0209  138.9131  159.4638 C.3     1  UNL1        0.0796
     21 C         143.6889  140.1009  158.8371 C.3     1  UNL1        0.0262
     22 C         144.0012  140.0983  157.3699 C.3     1  UNL1        0.0691
     23 N         143.6455  138.9078  156.5295 N.3     1  UNL1       -0.2974
     24 C         142.9775  137.7200  157.1563 C.3     1  UNL1        0.0691
     25 C         142.6652  137.7226  158.6234 C.3     1  UNL1        0.0262
     26 H         144.5137  138.5716  156.1128 H       1  UNL1        0.1232
     27 C         142.5849  140.0735  170.1995 C.3     1  UNL1        0.0757
     28 S         142.5738  139.3088  168.9089 S.3     1  UNL1       -0.0923
@<TRIPOS>BOND
     1    27    28    1
     2    28     1    1
     3     1     2   ar
     4     2     3   ar
     5     3    10    1
     6    10    11   ar
     7    11    12   ar
     8    12    13   ar
     9    13    14   ar
    10    14    15   ar
    11     3     4   ar
    12     4     5   ar
    13     5     6   ar
    14     6    16    1
    15    16    17   am
    16    17    18    2
    17    17    20    1
    18    20    21    1
    19    21    22    1
    20    22    23    1
    21    23    24    1
    22    24    25    1
    23     6     7   ar
    24     7     8   ar
    25     8     9   ar
    26     9     1   ar
    27    15    10   ar
    28     9     4   ar
    29    25    20    1
    30    16    19    1
    31    23    26    1
@<TRIPOS>MOLECULE
*****
 28 31 0 0 0
SMALL
GASTEIGER

@<TRIPOS>ATOM
      1 C         140.6798  144.2055  161.0462 C.ar    1  UNL1        0.1281
      2 N         141.3394  142.9785  160.4900 N.ar    1  UNL1       -0.1588
      3 N         141.4682  141.9780  161.6001 N.ar    1  UNL1       -0.2292
      4 C         140.8882  142.5866  162.8424 C.ar    1  UNL1        0.0860
      5 C         140.7408  142.0650  164.2410 C.ar    1  UNL1        0.0339
      6 C         140.1061  142.9202  165.2973 C.ar    1  UNL1        0.0518
      7 C         139.6188  144.2969  164.9550 C.ar    1  UNL1        0.0148
      8 C         139.7662  144.8184  163.5563 C.ar    1  UNL1        0.0048
      9 C         140.4009  143.9633  162.5000 C.ar    1  UNL1        0.0430
     10 C         142.0712  140.6091  161.4877 C.ar    1  UNL1        0.0828
     11 C         143.4970  140.4513  161.0490 C.ar    1  UNL1        0.0191
     12 C         144.1000  139.0825  160.9366 C.ar    1  UNL1        0.0015
     13 C         143.2773  137.8714  161.2629 C.ar    1  UNL1        0.0001
     14 C         141.8516  138.0292  161.7015 C.ar    1  UNL1        0.0015
     15 C         141.2486  139.3981  161.8139 C.ar    1  UNL1        0.0191
     16 N         139.9587  142.3986  166.6960 N.am    1  UNL1       -0.2839
     17 C         141.1735  142.1923  167.5514 C.2     1  UNL1        0.2257
     18 O         142.5357  142.5075  167.0081 O.2     1  UNL1       -0.2748
     19 H         139.0647  142.1917  167.0526 H       1  UNL1        0.1549
     20 C         141.0261  141.6708  168.9501 C.3     1  UNL1        0.0796
     21 C         141.8107  142.2907  170.0682 C.3     1  UNL1        0.0262
     22 C         141.6633  141.7691  171.4669 C.3     1  UNL1        0.0691
     23 N         140.7314  140.6277  171.7474 N.3     1  UNL1       -0.2974
     24 C         139.9468  140.0078  170.6293 C.3     1  UNL1        0.0691
     25 C         140.0942  140.5293  169.2306 C.3     1  UNL1        0.0262
     26 H         140.0537  140.9624  172.4324 H       1  UNL1        0.1232
     27 C         140.3941  145.4493  158.7831 C.3     1  UNL1        0.0757
     28 S         140.3558  145.4553  160.2827 S.3     1  UNL1       -0.0923
@<TRIPOS>BOND
     1    27    28    1
     2    28     1    1
     3     1     2   ar
     4     2     3   ar
     5     3    10    1
     6    10    11   ar
     7    11    12   ar
     8    12    13   ar
     9    13    14   ar
    10    14    15   ar
    11     3     4   ar
    12     4     5   ar
    13     5     6   ar
    14     6    16    1
    15    16    17   am
    16    17    18    2
    17    17    20    1
    18    20    21    1
    19    21    22    1
    20    22    23    1
    21    23    24    1
    22    24    25    1
    23     6     7   ar
    24     7     8   ar
    25     8     9   ar
    26     9     1   ar
    27    15    10   ar
    28     9     4   ar
    29    25    20    1
    30    16    19    1
    31    23    26    1
@<TRIPOS>MOLECULE
*****
 28 31 0 0 0
SMALL
GASTEIGER

@<TRIPOS>ATOM
      1 C         140.0779  139.4095  160.5719 C.ar    1  UNL1        0.1281
      2 N         139.8193  140.8523  160.2537 N.ar    1  UNL1       -0.1588
      3 N         140.1193  141.6589  161.4822 N.ar    1  UNL1       -0.2292
      4 C         140.5634  140.7146  162.5598 C.ar    1  UNL1        0.0860
      5 C         140.9878  140.9410  163.9805 C.ar    1  UNL1        0.0339
      6 C         141.3866  139.7772  164.8386 C.ar    1  UNL1        0.0518
      7 C         141.3610  138.3870  164.2760 C.ar    1  UNL1        0.0148
      8 C         140.9367  138.1605  162.8553 C.ar    1  UNL1        0.0048
      9 C         140.5379  139.3244  161.9971 C.ar    1  UNL1        0.0430
     10 C         139.9967  143.1484  161.6108 C.ar    1  UNL1        0.0828
     11 C         140.7834  144.0468  160.7029 C.ar    1  UNL1        0.0191
     12 C         140.6609  145.5363  160.8314 C.ar    1  UNL1        0.0015
     13 C         139.7517  146.1273  161.8678 C.ar    1  UNL1        0.0001
     14 C         138.9651  145.2290  162.7756 C.ar    1  UNL1        0.0015
     15 C         139.0876  143.7395  162.6471 C.ar    1  UNL1        0.0191
     16 N         141.8110  140.0036  166.2595 N.am    1  UNL1       -0.2839
     17 C         140.7903  139.9887  167.3585 C.2     1  UNL1        0.2257
     18 O         139.3452  139.7474  167.0367 O.2     1  UNL1       -0.2748
     19 H         142.7595  140.1620  166.4706 H       1  UNL1        0.1549
     20 C         141.2146  140.2151  168.7793 C.3     1  UNL1        0.0796
     21 C         140.3423  141.0102  169.7050 C.3     1  UNL1        0.0262
     22 C         140.7667  141.2365  171.1258 C.3     1  UNL1        0.0691
     23 N         142.0633  140.6678  171.6209 N.3     1  UNL1       -0.2974
     24 C         142.9357  139.8727  170.6953 C.3     1  UNL1        0.0691
     25 C         142.5113  139.6463  169.2745 C.3     1  UNL1        0.0262
     26 H         141.8367  140.0590  172.4073 H       1  UNL1        0.1232
     27 C         139.6992  138.5051  158.1659 C.3     1  UNL1        0.0757
     28 S         139.9068  138.2545  159.6302 S.3     1  UNL1       -0.0923
@<TRIPOS>BOND
     1    27    28    1
     2    28     1    1
     3     1     2   ar
     4     2     3   ar
     5     3    10    1
     6    10    11   ar
     7    11    12   ar
     8    12    13   ar
     9    13    14   ar
    10    14    15   ar
    11     3     4   ar
    12     4     5   ar
    13     5     6   ar
    14     6    16    1
    15    16    17   am
    16    17    18    2
    17    17    20    1
    18    20    21    1
    19    21    22    1
    20    22    23    1
    21    23    24    1
    22    24    25    1
    23     6     7   ar
    24     7     8   ar
    25     8     9   ar
    26     9     1   ar
    27    15    10   ar
    28     9     4   ar
    29    25    20    1
    30    16    19    1
    31    23    26    1
@<TRIPOS>MOLECULE
*****
 28 31 0 0 0
SMALL
GASTEIGER

@<TRIPOS>ATOM
      1 C         139.8198  140.4926  167.1576 C.ar    1  UNL1        0.1281
      2 N         140.6602  141.7310  167.0566 N.ar    1  UNL1       -0.1588
      3 N         141.0434  141.9150  165.6181 N.ar    1  UNL1       -0.2292
      4 C         140.4399  140.7904  164.8301 C.ar    1  UNL1        0.0860
      5 C         140.4813  140.4533  163.3691 C.ar    1  UNL1        0.0339
      6 C         139.7664  139.2370  162.8595 C.ar    1  UNL1        0.0518
      7 C         139.0102  138.3579  163.8110 C.ar    1  UNL1        0.0148
      8 C         138.9688  138.6951  165.2720 C.ar    1  UNL1        0.0048
      9 C         139.6837  139.9113  165.7816 C.ar    1  UNL1        0.0430
     10 C         141.8828  143.0283  165.0648 C.ar    1  UNL1        0.0828
     11 C         141.2335  144.1623  164.3281 C.ar    1  UNL1        0.0191
     12 C         142.0729  145.2755  163.7748 C.ar    1  UNL1        0.0015
     13 C         143.5615  145.2548  163.9581 C.ar    1  UNL1        0.0001
     14 C         144.2107  144.1208  164.6947 C.ar    1  UNL1        0.0015
     15 C         143.3713  143.0076  165.2481 C.ar    1  UNL1        0.0191
     16 N         139.8077  138.8999  161.3985 N.am    1  UNL1       -0.2839
     17 C         141.1209  138.6172  160.7309 C.2     1  UNL1        0.2257
     18 O         142.3927  138.6717  161.5244 O.2     1  UNL1       -0.2748
     19 H         138.9730  138.8641  160.8777 H       1  UNL1        0.1549
     20 C         141.1623  138.2800  159.2699 C.3     1  UNL1        0.0796
     21 C         139.9047  138.3264  158.4535 C.3     1  UNL1        0.0262
     22 C         139.9462  137.9892  156.9925 C.3     1  UNL1        0.0691
     23 N         141.2451  137.6057  156.3478 N.3     1  UNL1       -0.2974
     24 C         142.5027  137.5593  157.1642 C.3     1  UNL1        0.0691
     25 C         142.4613  137.8964  158.6252 C.3     1  UNL1        0.0262
     26 H         141.4080  138.2730  155.5938 H       1  UNL1        0.1232
     27 C         139.4020  140.6550  169.7168 C.3     1  UNL1        0.0757
     28 S         139.2208  139.9337  168.4141 S.3     1  UNL1       -0.0923
@<TRIPOS>BOND
     1    27    28    1
     2    28     1    1
     3     1     2   ar
     4     2     3   ar
     5     3    10    1
     6    10    11   ar
     7    11    12   ar
     8    12    13   ar
     9    13    14   ar
    10    14    15   ar
    11     3     4   ar
    12     4     5   ar
    13     5     6   ar
    14     6    16    1
    15    16    17   am
    16    17    18    2
    17    17    20    1
    18    20    21    1
    19    21    22    1
    20    22    23    1
    21    23    24    1
    22    24    25    1
    23     6     7   ar
    24     7     8   ar
    25     8     9   ar
    26     9     1   ar
    27    15    10   ar
    28     9     4   ar
    29    25    20    1
    30    16    19    1
    31    23    26    1
@<TRIPOS>MOLECULE
*****
 28 31 0 0 0
SMALL
GASTEIGER

@<TRIPOS>ATOM
      1 C         139.8064  140.4984  167.2152 C.ar    1  UNL1        0.1281
      2 N         140.7010  141.6992  167.1271 N.ar    1  UNL1       -0.1588
      3 N         141.0677  141.8992  165.6864 N.ar    1  UNL1       -0.2292
      4 C         140.3998  140.8221  164.8842 C.ar    1  UNL1        0.0860
      5 C         140.4006  140.5178  163.4154 C.ar    1  UNL1        0.0339
      6 C         139.6220  139.3477  162.8915 C.ar    1  UNL1        0.0518
      7 C         138.8424  138.4819  163.8364 C.ar    1  UNL1        0.0148
      8 C         138.8416  138.7862  165.3051 C.ar    1  UNL1        0.0048
      9 C         139.6202  139.9563  165.8290 C.ar    1  UNL1        0.0430
     10 C         141.9479  142.9857  165.1433 C.ar    1  UNL1        0.0828
     11 C         143.4295  142.9356  165.3726 C.ar    1  UNL1        0.0191
     12 C         144.3096  144.0220  164.8295 C.ar    1  UNL1        0.0015
     13 C         143.7083  145.1586  164.0571 C.ar    1  UNL1        0.0001
     14 C         142.2268  145.2087  163.8278 C.ar    1  UNL1        0.0015
     15 C         141.3466  144.1222  164.3709 C.ar    1  UNL1        0.0191
     16 N         139.6229  139.0433  161.4227 N.am    1  UNL1       -0.2839
     17 C         138.9055  139.9513  160.4682 C.2     1  UNL1        0.2257
     18 O         138.1874  141.1636  160.9825 O.2     1  UNL1       -0.2748
     19 H         140.0942  138.2476  161.0851 H       1  UNL1        0.1549
     20 C         138.9064  139.6470  158.9994 C.3     1  UNL1        0.0796
     21 C         138.1349  140.5178  158.0526 C.3     1  UNL1        0.0262
     22 C         138.1358  140.2134  156.5837 C.3     1  UNL1        0.0691
     23 N         138.9081  139.0383  156.0618 N.3     1  UNL1       -0.2974
     24 C         139.6795  138.1674  157.0086 C.3     1  UNL1        0.0691
     25 C         139.6787  138.4717  158.4774 C.3     1  UNL1        0.0262
     26 H         139.5783  139.4034  155.3851 H       1  UNL1        0.1232
     27 C         139.5849  140.5073  169.8039 C.3     1  UNL1        0.0757
     28 S         139.2038  139.9381  168.4693 S.3     1  UNL1       -0.0923
@<TRIPOS>BOND
     1    27    28    1
     2    28     1    1
     3     1     2   ar
     4     2     3   ar
     5     3    10    1
     6    10    11   ar
     7    11    12   ar
     8    12    13   ar
     9    13    14   ar
    10    14    15   ar
    11     3     4   ar
    12     4     5   ar
    13     5     6   ar
    14     6    16    1
    15    16    17   am
    16    17    18    2
    17    17    20    1
    18    20    21    1
    19    21    22    1
    20    22    23    1
    21    23    24    1
    22    24    25    1
    23     6     7   ar
    24     7     8   ar
    25     8     9   ar
    26     9     1   ar
    27    15    10   ar
    28     9     4   ar
    29    25    20    1
    30    16    19    1
    31    23    26    1
@<TRIPOS>MOLECULE
*****
 28 31 0 0 0
SMALL
GASTEIGER

@<TRIPOS>ATOM
      1 C         143.6217  141.2946  162.8151 C.ar    1  UNL1        0.1281
      2 N         142.5451  141.6702  163.7897 N.ar    1  UNL1       -0.1588
      3 N         141.4867  142.4262  163.0425 N.ar    1  UNL1       -0.2292
      4 C         141.9092  142.5179  161.6061 C.ar    1  UNL1        0.0860
      5 C         141.2629  143.1478  160.4080 C.ar    1  UNL1        0.0339
      6 C         141.9361  143.0783  159.0694 C.ar    1  UNL1        0.0518
      7 C         143.2556  142.3789  158.9289 C.ar    1  UNL1        0.0148
      8 C         143.9019  141.7490  160.1270 C.ar    1  UNL1        0.0048
      9 C         143.2287  141.8185  161.4656 C.ar    1  UNL1        0.0430
     10 C         140.2269  142.9914  163.6287 C.ar    1  UNL1        0.0828
     11 C         138.9400  142.2286  163.5177 C.ar    1  UNL1        0.0191
     12 C         137.6803  142.7938  164.1039 C.ar    1  UNL1        0.0015
     13 C         137.7074  144.1216  164.8011 C.ar    1  UNL1        0.0001
     14 C         138.9942  144.8843  164.9121 C.ar    1  UNL1        0.0015
     15 C         140.2540  144.3192  164.3258 C.ar    1  UNL1        0.0191
     16 N         141.2898  143.7082  157.8712 N.am    1  UNL1       -0.2839
     17 C         141.4441  145.1794  157.6225 C.2     1  UNL1        0.2257
     18 O         142.2448  146.0206  158.5719 O.2     1  UNL1       -0.2748
     19 H         140.7643  143.1561  157.2481 H       1  UNL1        0.1549
     20 C         140.7978  145.8093  156.4244 C.3     1  UNL1        0.0796
     21 C         141.3657  145.5751  155.0559 C.3     1  UNL1        0.0262
     22 C         140.7194  146.2051  153.8578 C.3     1  UNL1        0.0691
     23 N         139.5053  147.0692  154.0282 N.3     1  UNL1       -0.2974
     24 C         138.9374  147.3035  155.3966 C.3     1  UNL1        0.0691
     25 C         139.5836  146.6735  156.5947 C.3     1  UNL1        0.0262
     26 H         138.7631  146.6477  153.4696 H       1  UNL1        0.1232
     27 C         144.9143  139.6278  164.3321 C.3     1  UNL1        0.0757
     28 S         144.8718  140.5295  163.1340 S.3     1  UNL1       -0.0923
@<TRIPOS>BOND
     1    27    28    1
     2    28     1    1
     3     1     2   ar
     4     2     3   ar
     5     3    10    1
     6    10    11   ar
     7    11    12   ar
     8    12    13   ar
     9    13    14   ar
    10    14    15   ar
    11     3     4   ar
    12     4     5   ar
    13     5     6   ar
    14     6    16    1
    15    16    17   am
    16    17    18    2
    17    17    20    1
    18    20    21    1
    19    21    22    1
    20    22    23    1
    21    23    24    1
    22    24    25    1
    23     6     7   ar
    24     7     8   ar
    25     8     9   ar
    26     9     1   ar
    27    15    10   ar
    28     9     4   ar
    29    25    20    1
    30    16    19    1
    31    23    26    1
@<TRIPOS>MOLECULE
*****
 28 31 0 0 0
SMALL
GASTEIGER

@<TRIPOS>ATOM
      1 C         141.3483  139.4677  160.4775 C.ar    1  UNL1        0.1281
      2 N         140.8279  140.8450  160.1910 N.ar    1  UNL1       -0.1588
      3 N         140.8429  141.6223  161.4738 N.ar    1  UNL1       -0.2292
      4 C         141.3726  140.7254  162.5531 C.ar    1  UNL1        0.0860
      5 C         141.6109  140.9492  164.0170 C.ar    1  UNL1        0.0339
      6 C         142.1616  139.8413  164.8652 C.ar    1  UNL1        0.0518
      7 C         142.4740  138.5097  164.2494 C.ar    1  UNL1        0.0148
      8 C         142.2357  138.2859  162.7855 C.ar    1  UNL1        0.0048
      9 C         141.6850  139.3937  161.9373 C.ar    1  UNL1        0.0430
     10 C         140.4050  143.0465  161.6469 C.ar    1  UNL1        0.0828
     11 C         139.3229  143.3843  162.6293 C.ar    1  UNL1        0.0191
     12 C         138.8851  144.8085  162.8024 C.ar    1  UNL1        0.0015
     13 C         139.5292  145.8948  161.9932 C.ar    1  UNL1        0.0001
     14 C         140.6113  145.5570  161.0109 C.ar    1  UNL1        0.0015
     15 C         141.0491  144.1328  160.8377 C.ar    1  UNL1        0.0191
     16 N         142.3999  140.0651  166.3292 N.am    1  UNL1       -0.2839
     17 C         141.2454  140.0563  167.2869 C.2     1  UNL1        0.2257
     18 O         139.8527  139.8237  166.7806 O.2     1  UNL1       -0.2748
     19 H         143.3139  140.2177  166.6614 H       1  UNL1        0.1549
     20 C         141.4837  140.2800  168.7508 C.3     1  UNL1        0.0796
     21 C         142.7172  139.7293  169.4027 C.3     1  UNL1        0.0262
     22 C         142.9555  139.9531  170.8667 C.3     1  UNL1        0.0691
     23 N         141.9601  140.7276  171.6787 N.3     1  UNL1       -0.2974
     24 C         140.7265  141.2783  171.0268 C.3     1  UNL1        0.0691
     25 C         140.4883  141.0546  169.5629 C.3     1  UNL1        0.0262
     26 H         142.4606  141.5209  172.0794 H       1  UNL1        0.1232
     27 C         140.7869  138.4272  158.1639 C.3     1  UNL1        0.0757
     28 S         141.5047  138.3589  159.4794 S.3     1  UNL1       -0.0923
@<TRIPOS>BOND
     1    27    28    1
     2    28     1    1
     3     1     2   ar
     4     2     3   ar
     5     3    10    1
     6    10    11   ar
     7    11    12   ar
     8    12    13   ar
     9    13    14   ar
    10    14    15   ar
    11     3     4   ar
    12     4     5   ar
    13     5     6   ar
    14     6    16    1
    15    16    17   am
    16    17    18    2
    17    17    20    1
    18    20    21    1
    19    21    22    1
    20    22    23    1
    21    23    24    1
    22    24    25    1
    23     6     7   ar
    24     7     8   ar
    25     8     9   ar
    26     9     1   ar
    27    15    10   ar
    28     9     4   ar
    29    25    20    1
    30    16    19    1
    31    23    26    1
@<TRIPOS>MOLECULE
*****
 28 31 0 0 0
SMALL
GASTEIGER

@<TRIPOS>ATOM
      1 C         142.5234  143.1606  164.0244 C.ar    1  UNL1        0.1281
      2 N         142.0423  142.0031  164.8482 N.ar    1  UNL1       -0.1588
      3 N         140.8384  141.4199  164.1697 N.ar    1  UNL1       -0.2292
      4 C         140.5754  142.2170  162.9265 C.ar    1  UNL1        0.0860
      5 C         139.5222  142.1021  161.8646 C.ar    1  UNL1        0.0339
      6 C         139.5104  143.0630  160.7130 C.ar    1  UNL1        0.0518
      7 C         140.5518  144.1389  160.6232 C.ar    1  UNL1        0.0148
      8 C         141.6050  144.2538  161.6850 C.ar    1  UNL1        0.0048
      9 C         141.6168  143.2928  162.8367 C.ar    1  UNL1        0.0430
     10 C         140.0380  140.2458  164.6500 C.ar    1  UNL1        0.0828
     11 C         139.1282  140.3920  165.8338 C.ar    1  UNL1        0.0191
     12 C         138.3278  139.2179  166.3141 C.ar    1  UNL1        0.0015
     13 C         138.4371  137.8975  165.6107 C.ar    1  UNL1        0.0001
     14 C         139.3468  137.7513  164.4271 C.ar    1  UNL1        0.0015
     15 C         140.1472  138.9254  163.9468 C.ar    1  UNL1        0.0191
     16 N         138.4572  142.9482  159.6511 N.am    1  UNL1       -0.2839
     17 C         138.7997  142.3565  158.3159 C.2     1  UNL1        0.2257
     18 O         140.1955  141.8797  158.0427 O.2     1  UNL1       -0.2748
     19 H         137.5411  143.2611  159.8304 H       1  UNL1        0.1549
     20 C         137.7466  142.2416  157.2540 C.3     1  UNL1        0.0796
     21 C         136.8783  141.0202  157.1878 C.3     1  UNL1        0.0262
     22 C         135.8252  140.9054  156.1258 C.3     1  UNL1        0.0691
     23 N         135.6403  142.0119  155.1302 N.3     1  UNL1       -0.2974
     24 C         136.5085  143.2333  155.1964 C.3     1  UNL1        0.0691
     25 C         137.5616  143.3482  156.2583 C.3     1  UNL1        0.0262
     26 H         134.6757  142.3311  155.2204 H       1  UNL1        0.1232
     27 C         144.6350  143.6660  165.4512 C.3     1  UNL1        0.0757
     28 S         143.7038  144.0329  164.3339 S.3     1  UNL1       -0.0923
@<TRIPOS>BOND
     1    27    28    1
     2    28     1    1
     3     1     2   ar
     4     2     3   ar
     5     3    10    1
     6    10    11   ar
     7    11    12   ar
     8    12    13   ar
     9    13    14   ar
    10    14    15   ar
    11     3     4   ar
    12     4     5   ar
    13     5     6   ar
    14     6    16    1
    15    16    17   am
    16    17    18    2
    17    17    20    1
    18    20    21    1
    19    21    22    1
    20    22    23    1
    21    23    24    1
    22    24    25    1
    23     6     7   ar
    24     7     8   ar
    25     8     9   ar
    26     9     1   ar
    27    15    10   ar
    28     9     4   ar
    29    25    20    1
    30    16    19    1
    31    23    26    1
