@<TRIPOS>MOLECULE
*****
 33 35 0 0 0
SMALL
GASTEIGER

@<TRIPOS>ATOM
      1 C         138.8289  138.9303  165.5055 C.ar    1  UNL1        0.1417
      2 C         139.6853  140.1387  165.2684 C.ar    1  UNL1        0.0743
      3 C         140.0138  141.0600  166.4057 C.ar    1  UNL1        0.1485
      4 C         139.4858  140.7730  167.7800 C.ar    1  UNL1        0.0422
      5 C         138.6294  139.5646  168.0171 C.ar    1  UNL1        0.0598
      6 C         138.3010  138.6432  166.8799 C.ar    1  UNL1        0.0416
      7 C         138.1014  139.2774  169.3915 C.2     1  UNL1        0.2511
      8 O         138.7984  139.8390  170.5951 O.2     1  UNL1       -0.2698
      9 N         136.8764  138.4288  169.5621 N.am    1  UNL1       -0.2594
     10 H         136.4189  138.0603  168.7721 H       1  UNL1        0.1571
     11 C         136.3484  138.1417  170.9365 C.ar    1  UNL1        0.1845
     12 N         136.5211  136.8606  171.6974 N.ar    1  UNL1       -0.2077
     13 C         135.8344  137.0123  173.0224 C.ar    1  UNL1        0.1494
     14 C         135.7582  135.9719  174.1002 C.3     1  UNL1        0.0744
     15 N         135.2374  138.3873  173.0803 N.ar    1  UNL1       -0.1917
     16 S         135.5551  139.0852  171.7911 S.2     1  UNL1        0.0492
     17 O         138.5005  138.0090  164.3683 O.3     1  UNL1       -0.4765
     18 C         139.4969  137.7899  163.2688 C.3     1  UNL1        0.1954
     19 C         140.8434  137.2076  163.5818 C.3     1  UNL1        0.0500
     20 C         139.1469  138.1532  161.8561 C.3     1  UNL1        0.1855
     21 C         137.7797  140.3444  161.5748 C.3     1  UNL1        0.1743
     22 O         137.8502  138.8461  161.5592 O.3     1  UNL1       -0.3473
     23 O         140.8702  142.2685  166.1685 O.3     1  UNL1       -0.4534
     24 C         140.8859  142.9236  164.8192 C.ar    1  UNL1        0.1454
     25 C         139.7427  143.7982  164.3968 C.ar    1  UNL1        0.0388
     26 C         139.7583  144.4533  163.0475 C.ar    1  UNL1        0.0215
     27 C         140.9171  144.2337  162.1206 C.ar    1  UNL1        0.1059
     28 C         142.0601  143.3591  162.5429 C.ar    1  UNL1        0.0215
     29 C         142.0445  142.7040  163.8923 C.ar    1  UNL1        0.0388
     30 S         140.9327  144.8888  160.7713 S.O2    1  UNL1        0.0105
     31 C         140.9483  145.5438  159.4219 C.3     1  UNL1        0.1816
     32 O         139.5264  145.3645  160.9860 O.2     1  UNL1       -0.1686
     33 O         142.3389  144.4130  160.5565 O.2     1  UNL1       -0.1686
@<TRIPOS>BOND
     1    21    22    1
     2    22    20    1
     3    20    18    1
     4    18    19    1
     5    18    17    1
     6    17     1    1
     7     1     2   ar
     8     2     3   ar
     9     3    23    1
    10    23    24    1
    11    24    25   ar
    12    25    26   ar
    13    26    27   ar
    14    27    30    1
    15    30    31    1
    16    30    32    2
    17    30    33    2
    18    27    28   ar
    19    28    29   ar
    20     3     4   ar
    21     4     5   ar
    22     5     7    1
    23     7     8    2
    24     7     9   am
    25     9    11    1
    26    11    12   ar
    27    12    13   ar
    28    13    14    1
    29    13    15   ar
    30    15    16   ar
    31     5     6   ar
    32     6     1   ar
    33    29    24   ar
    34    16    11   ar
    35     9    10    1
@<TRIPOS>MOLECULE
*****
 33 35 0 0 0
SMALL
GASTEIGER

@<TRIPOS>ATOM
      1 C         137.9567  141.9245  161.7906 C.ar    1  UNL1        0.1417
      2 C         138.0032  140.9444  162.9251 C.ar    1  UNL1        0.0743
      3 C         138.4296  139.5281  162.6758 C.ar    1  UNL1        0.1485
      4 C         138.8094  139.0918  161.2918 C.ar    1  UNL1        0.0422
      5 C         138.7629  140.0719  160.1573 C.ar    1  UNL1        0.0598
      6 C         138.3366  141.4882  160.4067 C.ar    1  UNL1        0.0416
      7 C         139.1428  139.6356  158.7732 C.2     1  UNL1        0.2511
      8 O         139.2018  140.6395  157.6602 O.2     1  UNL1       -0.2698
      9 N         139.4637  138.1957  158.5023 N.am    1  UNL1       -0.2594
     10 H         139.4249  137.5368  159.2329 H       1  UNL1        0.1571
     11 C         139.8435  137.7594  157.1183 C.ar    1  UNL1        0.1845
     12 N         138.9028  137.5623  155.9667 N.ar    1  UNL1       -0.2077
     13 C         139.7086  137.1247  154.7796 C.ar    1  UNL1        0.1494
     14 C         139.1703  136.8149  153.4142 C.3     1  UNL1        0.0744
     15 N         141.1474  137.0515  155.1975 N.ar    1  UNL1       -0.1917
     16 S         141.2307  137.4438  156.6429 S.2     1  UNL1        0.0492
     17 O         137.5303  143.3408  162.0400 O.3     1  UNL1       -0.4765
     18 C         138.2352  144.1649  163.0763 C.3     1  UNL1        0.1954
     19 C         137.8015  144.0973  164.5106 C.3     1  UNL1        0.0500
     20 C         139.3740  145.0565  162.6783 C.3     1  UNL1        0.1855
     21 C         140.2616  145.3599  160.2555 C.3     1  UNL1        0.1743
     22 O         139.3388  145.7759  161.3626 O.3     1  UNL1       -0.3473
     23 O         138.4761  138.5480  163.8104 O.3     1  UNL1       -0.4534
     24 C         138.8863  139.0042  165.1792 C.ar    1  UNL1        0.1454
     25 C         137.9347  138.8702  166.3310 C.ar    1  UNL1        0.0388
     26 C         138.3450  139.3264  167.6997 C.ar    1  UNL1        0.0215
     27 C         139.7068  139.9167  167.9167 C.ar    1  UNL1        0.1059
     28 C         140.6584  140.0507  166.7650 C.ar    1  UNL1        0.0215
     29 C         140.2481  139.5944  165.3962 C.ar    1  UNL1        0.0388
     30 S         140.1171  140.3729  169.2855 S.O2    1  UNL1        0.0105
     31 C         140.5274  140.8291  170.6543 C.3     1  UNL1        0.1816
     32 O         141.3750  140.9568  168.7139 O.2     1  UNL1       -0.1686
     33 O         138.8592  139.7890  169.8571 O.2     1  UNL1       -0.1686
@<TRIPOS>BOND
     1    21    22    1
     2    22    20    1
     3    20    18    1
     4    18    19    1
     5    18    17    1
     6    17     1    1
     7     1     2   ar
     8     2     3   ar
     9     3    23    1
    10    23    24    1
    11    24    25   ar
    12    25    26   ar
    13    26    27   ar
    14    27    30    1
    15    30    31    1
    16    30    32    2
    17    30    33    2
    18    27    28   ar
    19    28    29   ar
    20     3     4   ar
    21     4     5   ar
    22     5     7    1
    23     7     8    2
    24     7     9   am
    25     9    11    1
    26    11    12   ar
    27    12    13   ar
    28    13    14    1
    29    13    15   ar
    30    15    16   ar
    31     5     6   ar
    32     6     1   ar
    33    29    24   ar
    34    16    11   ar
    35     9    10    1
@<TRIPOS>MOLECULE
*****
 33 35 0 0 0
SMALL
GASTEIGER

@<TRIPOS>ATOM
      1 C         138.1975  141.2593  161.8200 C.ar    1  UNL1        0.1417
      2 C         138.1220  140.4092  163.0534 C.ar    1  UNL1        0.0743
      3 C         138.7491  139.0466  163.0647 C.ar    1  UNL1        0.1485
      4 C         139.4517  138.5342  161.8425 C.ar    1  UNL1        0.0422
      5 C         139.5272  139.3844  160.6091 C.ar    1  UNL1        0.0598
      6 C         138.9001  140.7470  160.5978 C.ar    1  UNL1        0.0416
      7 C         140.2298  138.8720  159.3868 C.2     1  UNL1        0.2511
      8 O         139.4368  138.4746  158.1771 O.2     1  UNL1       -0.2698
      9 N         141.7253  138.7570  159.3742 N.am    1  UNL1       -0.2594
     10 H         142.2457  139.0179  160.1682 H       1  UNL1        0.1571
     11 C         142.4279  138.2447  158.1520 C.ar    1  UNL1        0.1845
     12 N         142.5974  136.8036  157.7715 N.ar    1  UNL1       -0.2077
     13 C         143.3586  136.7517  156.4800 C.ar    1  UNL1        0.1494
     14 C         143.7501  135.5090  155.7367 C.3     1  UNL1        0.0744
     15 N         143.6596  138.1606  156.0623 N.ar    1  UNL1       -0.1917
     16 S         143.0843  139.0833  157.0957 S.2     1  UNL1        0.0492
     17 O         137.5704  142.6219  161.8087 O.3     1  UNL1       -0.4765
     18 C         138.1643  143.7277  162.6299 C.3     1  UNL1        0.1954
     19 C         137.6594  143.9848  164.0188 C.3     1  UNL1        0.0500
     20 C         139.2632  144.5765  162.0623 C.3     1  UNL1        0.1855
     21 C         140.7164  145.2916  160.0309 C.3     1  UNL1        0.1743
     22 O         139.5069  144.5966  160.5824 O.3     1  UNL1       -0.3473
     23 O         138.6735  138.1964  164.2982 O.3     1  UNL1       -0.4534
     24 C         139.0438  138.7749  165.6317 C.ar    1  UNL1        0.1454
     25 C         140.4298  139.3002  165.8626 C.ar    1  UNL1        0.0388
     26 C         140.8001  139.8788  167.1960 C.ar    1  UNL1        0.0215
     27 C         139.7844  139.9321  168.2986 C.ar    1  UNL1        0.1059
     28 C         138.3985  139.4068  168.0677 C.ar    1  UNL1        0.0215
     29 C         138.0282  138.8283  166.7342 C.ar    1  UNL1        0.0388
     30 S         140.1547  140.5107  169.6321 S.O2    1  UNL1        0.0105
     31 C         140.5250  141.0893  170.9656 C.3     1  UNL1        0.1816
     32 O         141.4302  141.0413  169.0477 O.2     1  UNL1       -0.1686
     33 O         138.8792  139.9801  170.2165 O.2     1  UNL1       -0.1686
@<TRIPOS>BOND
     1    21    22    1
     2    22    20    1
     3    20    18    1
     4    18    19    1
     5    18    17    1
     6    17     1    1
     7     1     2   ar
     8     2     3   ar
     9     3    23    1
    10    23    24    1
    11    24    25   ar
    12    25    26   ar
    13    26    27   ar
    14    27    30    1
    15    30    31    1
    16    30    32    2
    17    30    33    2
    18    27    28   ar
    19    28    29   ar
    20     3     4   ar
    21     4     5   ar
    22     5     7    1
    23     7     8    2
    24     7     9   am
    25     9    11    1
    26    11    12   ar
    27    12    13   ar
    28    13    14    1
    29    13    15   ar
    30    15    16   ar
    31     5     6   ar
    32     6     1   ar
    33    29    24   ar
    34    16    11   ar
    35     9    10    1
@<TRIPOS>MOLECULE
*****
 33 35 0 0 0
SMALL
GASTEIGER

@<TRIPOS>ATOM
      1 C         137.8760  142.4029  162.3457 C.ar    1  UNL1        0.1417
      2 C         138.0657  141.3279  163.3743 C.ar    1  UNL1        0.0743
      3 C         138.3166  139.9132  162.9433 C.ar    1  UNL1        0.1485
      4 C         138.3778  139.5736  161.4836 C.ar    1  UNL1        0.0422
      5 C         138.1881  140.6487  160.4549 C.ar    1  UNL1        0.0598
      6 C         137.9372  142.0633  160.8859 C.ar    1  UNL1        0.0416
      7 C         138.2493  140.3091  158.9950 C.2     1  UNL1        0.2511
      8 O         138.9871  139.0849  158.5401 O.2     1  UNL1       -0.2698
      9 N         137.5727  141.1937  157.9903 N.am    1  UNL1       -0.2594
     10 H         137.0885  141.9972  158.2889 H       1  UNL1        0.1571
     11 C         137.6339  140.8541  156.5304 C.ar    1  UNL1        0.1845
     12 N         136.6559  139.9969  155.7830 N.ar    1  UNL1       -0.2077
     13 C         137.1014  139.9251  154.3524 C.ar    1  UNL1        0.1494
     14 C         136.4142  139.1726  153.2517 C.3     1  UNL1        0.0744
     15 N         138.3546  140.7380  154.2158 N.ar    1  UNL1       -0.1917
     16 S         138.6837  141.3121  155.5619 S.2     1  UNL1        0.0492
     17 O         137.6251  143.8176  162.7767 O.3     1  UNL1       -0.4765
     18 C         138.7127  144.6003  163.4508 C.3     1  UNL1        0.1954
     19 C         138.7840  144.6488  164.9483 C.3     1  UNL1        0.0500
     20 C         139.7290  145.3346  162.6274 C.3     1  UNL1        0.1855
     21 C         140.2697  145.0502  160.1021 C.3     1  UNL1        0.1743
     22 O         139.4385  145.6594  161.1921 O.3     1  UNL1       -0.3473
     23 O         138.5063  138.8382  163.9721 O.3     1  UNL1       -0.4534
     24 C         138.9401  139.1984  165.3621 C.ar    1  UNL1        0.1454
     25 C         137.9839  139.0498  166.5083 C.ar    1  UNL1        0.0388
     26 C         138.4177  139.4100  167.8983 C.ar    1  UNL1        0.0215
     27 C         139.8076  139.9189  168.1421 C.ar    1  UNL1        0.1059
     28 C         140.7636  140.0675  166.9959 C.ar    1  UNL1        0.0215
     29 C         140.3299  139.7072  165.6059 C.ar    1  UNL1        0.0388
     30 S         140.2413  140.2791  169.5321 S.O2    1  UNL1        0.0105
     31 C         140.6751  140.6394  170.9220 C.3     1  UNL1        0.1816
     32 O         138.9092  139.8382  170.0620 O.2     1  UNL1       -0.1686
     33 O         141.5735  140.7201  169.0021 O.2     1  UNL1       -0.1686
@<TRIPOS>BOND
     1    21    22    1
     2    22    20    1
     3    20    18    1
     4    18    19    1
     5    18    17    1
     6    17     1    1
     7     1     2   ar
     8     2     3   ar
     9     3    23    1
    10    23    24    1
    11    24    25   ar
    12    25    26   ar
    13    26    27   ar
    14    27    30    1
    15    30    31    1
    16    30    32    2
    17    30    33    2
    18    27    28   ar
    19    28    29   ar
    20     3     4   ar
    21     4     5   ar
    22     5     7    1
    23     7     8    2
    24     7     9   am
    25     9    11    1
    26    11    12   ar
    27    12    13   ar
    28    13    14    1
    29    13    15   ar
    30    15    16   ar
    31     5     6   ar
    32     6     1   ar
    33    29    24   ar
    34    16    11   ar
    35     9    10    1
@<TRIPOS>MOLECULE
*****
 33 35 0 0 0
SMALL
GASTEIGER

@<TRIPOS>ATOM
      1 C         138.6811  139.4096  165.5997 C.ar    1  UNL1        0.1417
      2 C         139.7577  140.4469  165.4773 C.ar    1  UNL1        0.0743
      3 C         140.2932  141.1205  166.7059 C.ar    1  UNL1        0.1485
      4 C         139.7522  140.7569  168.0568 C.ar    1  UNL1        0.0422
      5 C         138.6757  139.7196  168.1792 C.ar    1  UNL1        0.0598
      6 C         138.1401  139.0460  166.9506 C.ar    1  UNL1        0.0416
      7 C         138.1346  139.3560  169.5302 C.2     1  UNL1        0.2511
      8 O         138.8194  139.8498  170.7700 O.2     1  UNL1       -0.2698
      9 N         136.9089  138.4986  169.6412 N.am    1  UNL1       -0.2594
     10 H         136.4595  138.1745  168.8274 H       1  UNL1        0.1571
     11 C         136.3678  138.1349  170.9922 C.ar    1  UNL1        0.1845
     12 N         136.6441  136.8641  171.7396 N.ar    1  UNL1       -0.2077
     13 C         135.9026  136.9219  173.0423 C.ar    1  UNL1        0.1494
     14 C         135.8966  135.8597  174.1014 C.3     1  UNL1        0.0744
     15 N         135.1680  138.2285  173.0998 N.ar    1  UNL1       -0.1917
     16 S         135.4556  138.9782  171.8328 S.2     1  UNL1        0.0492
     17 O         138.1455  138.7359  164.3711 O.3     1  UNL1       -0.4765
     18 C         139.0853  138.0658  163.4132 C.3     1  UNL1        0.1954
     19 C         140.2098  137.2203  163.9334 C.3     1  UNL1        0.0500
     20 C         138.9006  138.2412  161.9349 C.3     1  UNL1        0.1855
     21 C         137.4804  139.7876  160.4046 C.3     1  UNL1        0.1743
     22 O         138.6122  139.6009  161.3712 O.3     1  UNL1       -0.3473
     23 O         141.3699  142.1579  166.5834 O.3     1  UNL1       -0.4534
     24 C         142.1332  142.2987  165.2999 C.ar    1  UNL1        0.1454
     25 C         143.4151  141.5451  165.1031 C.ar    1  UNL1        0.0388
     26 C         144.1784  141.6859  163.8195 C.ar    1  UNL1        0.0215
     27 C         143.6597  142.5803  162.7327 C.ar    1  UNL1        0.1059
     28 C         142.3778  143.3339  162.9295 C.ar    1  UNL1        0.0215
     29 C         141.6145  143.1931  164.2131 C.ar    1  UNL1        0.0388
     30 S         144.4230  142.7211  161.4491 S.O2    1  UNL1        0.0105
     31 C         145.1863  142.8620  160.1656 C.3     1  UNL1        0.1816
     32 O         143.3904  143.6829  160.9406 O.2     1  UNL1       -0.1686
     33 O         145.4556  141.7593  161.9577 O.2     1  UNL1       -0.1686
@<TRIPOS>BOND
     1    21    22    1
     2    22    20    1
     3    20    18    1
     4    18    19    1
     5    18    17    1
     6    17     1    1
     7     1     2   ar
     8     2     3   ar
     9     3    23    1
    10    23    24    1
    11    24    25   ar
    12    25    26   ar
    13    26    27   ar
    14    27    30    1
    15    30    31    1
    16    30    32    2
    17    30    33    2
    18    27    28   ar
    19    28    29   ar
    20     3     4   ar
    21     4     5   ar
    22     5     7    1
    23     7     8    2
    24     7     9   am
    25     9    11    1
    26    11    12   ar
    27    12    13   ar
    28    13    14    1
    29    13    15   ar
    30    15    16   ar
    31     5     6   ar
    32     6     1   ar
    33    29    24   ar
    34    16    11   ar
    35     9    10    1
@<TRIPOS>MOLECULE
*****
 33 35 0 0 0
SMALL
GASTEIGER

@<TRIPOS>ATOM
      1 C         144.1618  140.0309  161.8936 C.ar    1  UNL1        0.1417
      2 C         143.5794  139.3663  163.1056 C.ar    1  UNL1        0.0743
      3 C         142.5317  138.3044  162.9480 C.ar    1  UNL1        0.1485
      4 C         142.0664  137.9072  161.5785 C.ar    1  UNL1        0.0422
      5 C         142.6488  138.5718  160.3665 C.ar    1  UNL1        0.0598
      6 C         143.6965  139.6337  160.5240 C.ar    1  UNL1        0.0416
      7 C         142.1836  138.1746  158.9969 C.2     1  UNL1        0.2511
      8 O         140.7759  138.4666  158.5690 O.2     1  UNL1       -0.2698
      9 N         143.1260  137.4854  158.0552 N.am    1  UNL1       -0.2594
     10 H         144.0499  137.2937  158.3361 H       1  UNL1        0.1571
     11 C         142.6608  137.0881  156.6856 C.ar    1  UNL1        0.1845
     12 N         142.1543  135.7343  156.2847 N.ar    1  UNL1       -0.2077
     13 C         141.8008  135.7844  154.8277 C.ar    1  UNL1        0.1494
     14 C         141.2551  134.6491  154.0133 C.3     1  UNL1        0.0744
     15 N         142.0888  137.1692  154.3283 N.ar    1  UNL1       -0.1917
     16 S         142.6203  137.9749  155.4765 S.2     1  UNL1        0.0492
     17 O         145.2094  141.0928  162.0511 O.3     1  UNL1       -0.4765
     18 C         144.9177  142.3196  162.8633 C.3     1  UNL1        0.1954
     19 C         145.2580  142.3506  164.3239 C.3     1  UNL1        0.0500
     20 C         144.2855  143.5156  162.2150 C.3     1  UNL1        0.1855
     21 C         142.7072  145.1413  163.4863 C.3     1  UNL1        0.1743
     22 O         144.0794  144.7748  163.0036 O.3     1  UNL1       -0.3473
     23 O         141.9493  137.6397  164.1601 O.3     1  UNL1       -0.4534
     24 C         141.5159  138.4672  165.3338 C.ar    1  UNL1        0.1454
     25 C         142.5234  138.9070  166.3544 C.ar    1  UNL1        0.0388
     26 C         142.0900  139.7344  167.5280 C.ar    1  UNL1        0.0215
     27 C         140.6490  140.1222  167.6810 C.ar    1  UNL1        0.1059
     28 C         139.6416  139.6825  166.6604 C.ar    1  UNL1        0.0215
     29 C         140.0750  138.8550  165.4868 C.ar    1  UNL1        0.0388
     30 S         140.2156  140.9497  168.8547 S.O2    1  UNL1        0.0105
     31 C         139.7822  141.7772  170.0283 C.3     1  UNL1        0.1816
     32 O         140.5489  142.2001  168.0961 O.2     1  UNL1       -0.1686
     33 O         139.8823  139.6993  169.6132 O.2     1  UNL1       -0.1686
@<TRIPOS>BOND
     1    21    22    1
     2    22    20    1
     3    20    18    1
     4    18    19    1
     5    18    17    1
     6    17     1    1
     7     1     2   ar
     8     2     3   ar
     9     3    23    1
    10    23    24    1
    11    24    25   ar
    12    25    26   ar
    13    26    27   ar
    14    27    30    1
    15    30    31    1
    16    30    32    2
    17    30    33    2
    18    27    28   ar
    19    28    29   ar
    20     3     4   ar
    21     4     5   ar
    22     5     7    1
    23     7     8    2
    24     7     9   am
    25     9    11    1
    26    11    12   ar
    27    12    13   ar
    28    13    14    1
    29    13    15   ar
    30    15    16   ar
    31     5     6   ar
    32     6     1   ar
    33    29    24   ar
    34    16    11   ar
    35     9    10    1
@<TRIPOS>MOLECULE
*****
 33 35 0 0 0
SMALL
GASTEIGER

@<TRIPOS>ATOM
      1 C         144.0296  141.9185  161.9477 C.ar    1  UNL1        0.1417
      2 C         143.9813  141.0710  163.1844 C.ar    1  UNL1        0.0743
      3 C         143.6920  139.6031  163.0768 C.ar    1  UNL1        0.1485
      4 C         143.4510  138.9827  161.7327 C.ar    1  UNL1        0.0422
      5 C         143.4993  139.8302  160.4960 C.ar    1  UNL1        0.0598
      6 C         143.7886  141.2981  160.6035 C.ar    1  UNL1        0.0416
      7 C         143.2583  139.2097  159.1517 C.2     1  UNL1        0.2511
      8 O         144.0374  139.6785  157.9587 O.2     1  UNL1       -0.2698
      9 N         142.2381  138.1205  159.0004 N.am    1  UNL1       -0.2594
     10 H         141.7267  137.8129  159.7834 H       1  UNL1        0.1571
     11 C         141.9971  137.5001  157.6561 C.ar    1  UNL1        0.1845
     12 N         140.8619  137.8188  156.7288 N.ar    1  UNL1       -0.2077
     13 C         141.0121  136.9677  155.5027 C.ar    1  UNL1        0.1494
     14 C         140.0954  136.9623  154.3155 C.3     1  UNL1        0.0744
     15 N         142.2401  136.1231  155.6723 N.ar    1  UNL1       -0.1917
     16 S         142.8488  136.4522  157.0032 S.2     1  UNL1        0.0492
     17 O         144.3190  143.3864  162.0552 O.3     1  UNL1       -0.4765
     18 C         143.3195  144.3028  162.6965 C.3     1  UNL1        0.1954
     19 C         143.6755  145.0384  163.9544 C.3     1  UNL1        0.0500
     20 C         141.9641  144.4837  162.0799 C.3     1  UNL1        0.1855
     21 C         139.9544  146.0963  161.7465 C.3     1  UNL1        0.1743
     22 O         141.0243  145.5180  162.6247 O.3     1  UNL1       -0.3473
     23 O         143.6437  138.7557  164.3136 O.3     1  UNL1       -0.4534
     24 C         142.7274  139.1268  165.4417 C.ar    1  UNL1        0.1454
     25 C         141.2886  139.4480  165.1646 C.ar    1  UNL1        0.0388
     26 C         140.3723  139.8191  166.2927 C.ar    1  UNL1        0.0215
     27 C         140.8948  139.8689  167.6980 C.ar    1  UNL1        0.1059
     28 C         142.3335  139.5477  167.9750 C.ar    1  UNL1        0.0215
     29 C         143.2498  139.1766  166.8469 C.ar    1  UNL1        0.0388
     30 S         139.9784  140.2400  168.8261 S.O2    1  UNL1        0.0105
     31 C         139.0621  140.6111  169.9542 C.3     1  UNL1        0.1816
     32 O         141.0845  141.0254  169.4662 O.2     1  UNL1       -0.1686
     33 O         138.8723  139.4547  168.1860 O.2     1  UNL1       -0.1686
@<TRIPOS>BOND
     1    21    22    1
     2    22    20    1
     3    20    18    1
     4    18    19    1
     5    18    17    1
     6    17     1    1
     7     1     2   ar
     8     2     3   ar
     9     3    23    1
    10    23    24    1
    11    24    25   ar
    12    25    26   ar
    13    26    27   ar
    14    27    30    1
    15    30    31    1
    16    30    32    2
    17    30    33    2
    18    27    28   ar
    19    28    29   ar
    20     3     4   ar
    21     4     5   ar
    22     5     7    1
    23     7     8    2
    24     7     9   am
    25     9    11    1
    26    11    12   ar
    27    12    13   ar
    28    13    14    1
    29    13    15   ar
    30    15    16   ar
    31     5     6   ar
    32     6     1   ar
    33    29    24   ar
    34    16    11   ar
    35     9    10    1
@<TRIPOS>MOLECULE
*****
 33 35 0 0 0
SMALL
GASTEIGER

@<TRIPOS>ATOM
      1 C         143.1053  142.9567  160.6166 C.ar    1  UNL1        0.1417
      2 C         143.8067  142.5620  161.8823 C.ar    1  UNL1        0.0743
      3 C         144.3128  141.1604  162.0536 C.ar    1  UNL1        0.1485
      4 C         144.1174  140.1535  160.9591 C.ar    1  UNL1        0.0422
      5 C         143.4160  140.5482  159.6934 C.ar    1  UNL1        0.0598
      6 C         142.9100  141.9498  159.5221 C.ar    1  UNL1        0.0416
      7 C         143.2207  139.5413  158.5988 C.2     1  UNL1        0.2511
      8 O         144.0533  139.6163  157.3534 O.2     1  UNL1       -0.2698
      9 N         142.1927  138.4594  158.7497 N.am    1  UNL1       -0.2594
     10 H         141.6463  138.4102  159.5671 H       1  UNL1        0.1571
     11 C         141.9974  137.4525  157.6551 C.ar    1  UNL1        0.1845
     12 N         142.8767  136.2691  157.3786 N.ar    1  UNL1       -0.2077
     13 C         142.3112  135.5374  156.1975 C.ar    1  UNL1        0.1494
     14 C         142.8754  134.2930  155.5785 C.3     1  UNL1        0.0744
     15 N         141.0824  136.2686  155.7442 N.ar    1  UNL1       -0.1917
     16 S         140.8885  137.4521  156.6450 S.2     1  UNL1        0.0492
     17 O         142.5992  144.3584  160.4453 O.3     1  UNL1       -0.4765
     18 C         141.5141  144.6477  159.4510 C.3     1  UNL1        0.1954
     19 C         141.8540  145.2732  158.1306 C.3     1  UNL1        0.0500
     20 C         140.0890  144.3116  159.7769 C.3     1  UNL1        0.1855
     21 C         139.7749  146.1220  161.6137 C.3     1  UNL1        0.1743
     22 O         139.4960  144.7465  161.0842 O.3     1  UNL1       -0.3473
     23 O         145.0142  140.7657  163.3194 O.3     1  UNL1       -0.4534
     24 C         144.2278  140.5620  164.5804 C.ar    1  UNL1        0.1454
     25 C         143.6849  141.7455  165.3252 C.ar    1  UNL1        0.0388
     26 C         142.8985  141.5418  166.5862 C.ar    1  UNL1        0.0215
     27 C         142.6550  140.1546  167.1024 C.ar    1  UNL1        0.1059
     28 C         143.1978  138.9712  166.3576 C.ar    1  UNL1        0.0215
     29 C         143.9842  139.1749  165.0966 C.ar    1  UNL1        0.0388
     30 S         141.8686  139.9509  168.3634 S.O2    1  UNL1        0.0105
     31 C         141.0822  139.7472  169.6244 C.3     1  UNL1        0.1816
     32 O         140.7922  140.8538  167.8379 O.2     1  UNL1       -0.1686
     33 O         142.9450  139.0480  168.8888 O.2     1  UNL1       -0.1686
@<TRIPOS>BOND
     1    21    22    1
     2    22    20    1
     3    20    18    1
     4    18    19    1
     5    18    17    1
     6    17     1    1
     7     1     2   ar
     8     2     3   ar
     9     3    23    1
    10    23    24    1
    11    24    25   ar
    12    25    26   ar
    13    26    27   ar
    14    27    30    1
    15    30    31    1
    16    30    32    2
    17    30    33    2
    18    27    28   ar
    19    28    29   ar
    20     3     4   ar
    21     4     5   ar
    22     5     7    1
    23     7     8    2
    24     7     9   am
    25     9    11    1
    26    11    12   ar
    27    12    13   ar
    28    13    14    1
    29    13    15   ar
    30    15    16   ar
    31     5     6   ar
    32     6     1   ar
    33    29    24   ar
    34    16    11   ar
    35     9    10    1
@<TRIPOS>MOLECULE
*****
 33 35 0 0 0
SMALL
GASTEIGER

@<TRIPOS>ATOM
      1 C         141.2516  142.5842  161.4626 C.ar    1  UNL1        0.1417
      2 C         141.4636  141.4975  162.4745 C.ar    1  UNL1        0.0743
      3 C         140.8101  140.1604  162.2872 C.ar    1  UNL1        0.1485
      4 C         139.9445  139.9100  161.0881 C.ar    1  UNL1        0.0422
      5 C         139.7325  140.9968  160.0762 C.ar    1  UNL1        0.0598
      6 C         140.3860  142.3339  160.2635 C.ar    1  UNL1        0.0416
      7 C         138.8668  140.7464  158.8769 C.2     1  UNL1        0.2511
      8 O         138.7861  139.3709  158.2842 O.2     1  UNL1       -0.2698
      9 N         138.0820  141.8716  158.2705 N.am    1  UNL1       -0.2594
     10 H         138.1349  142.7745  158.6595 H       1  UNL1        0.1571
     11 C         137.2163  141.6213  157.0712 C.ar    1  UNL1        0.1845
     12 N         136.1142  140.6083  156.9755 N.ar    1  UNL1       -0.2077
     13 C         135.5176  140.7010  155.6023 C.ar    1  UNL1        0.1494
     14 C         134.3862  139.8694  155.0746 C.3     1  UNL1        0.0744
     15 N         136.2510  141.7712  154.8495 N.ar    1  UNL1       -0.1917
     16 S         137.3009  142.3400  155.7573 S.2     1  UNL1        0.0492
     17 O         141.9051  143.9213  161.6499 O.3     1  UNL1       -0.4765
     18 C         141.2551  144.9591  162.5162 C.3     1  UNL1        0.1954
     19 C         141.7425  145.1785  163.9177 C.3     1  UNL1        0.0500
     20 C         140.1176  145.7775  161.9809 C.3     1  UNL1        0.1855
     21 C         138.2203  144.3266  163.0034 C.3     1  UNL1        0.1743
     22 O         138.7439  145.1822  161.8881 O.3     1  UNL1       -0.3473
     23 O         141.0222  139.0736  163.2992 O.3     1  UNL1       -0.4534
     24 C         140.8678  139.3700  164.7615 C.ar    1  UNL1        0.1454
     25 C         139.5057  139.6260  165.3352 C.ar    1  UNL1        0.0388
     26 C         139.3513  139.9224  166.7975 C.ar    1  UNL1        0.0215
     27 C         140.5591  139.9627  167.6861 C.ar    1  UNL1        0.1059
     28 C         141.9212  139.7067  167.1125 C.ar    1  UNL1        0.0215
     29 C         142.0756  139.4103  165.6502 C.ar    1  UNL1        0.0388
     30 S         140.4048  140.2591  169.1485 S.O2    1  UNL1        0.0105
     31 C         140.2504  140.5554  170.6108 C.3     1  UNL1        0.1816
     32 O         139.0091  139.7105  169.1123 O.2     1  UNL1       -0.1686
     33 O         141.8004  140.8076  169.1846 O.2     1  UNL1       -0.1686
@<TRIPOS>BOND
     1    21    22    1
     2    22    20    1
     3    20    18    1
     4    18    19    1
     5    18    17    1
     6    17     1    1
     7     1     2   ar
     8     2     3   ar
     9     3    23    1
    10    23    24    1
    11    24    25   ar
    12    25    26   ar
    13    26    27   ar
    14    27    30    1
    15    30    31    1
    16    30    32    2
    17    30    33    2
    18    27    28   ar
    19    28    29   ar
    20     3     4   ar
    21     4     5   ar
    22     5     7    1
    23     7     8    2
    24     7     9   am
    25     9    11    1
    26    11    12   ar
    27    12    13   ar
    28    13    14    1
    29    13    15   ar
    30    15    16   ar
    31     5     6   ar
    32     6     1   ar
    33    29    24   ar
    34    16    11   ar
    35     9    10    1
