@<TRIPOS>MOLECULE
*****
 30 32 0 0 0
SMALL
GASTEIGER

@<TRIPOS>ATOM
      1 C         141.0181  141.3074  169.1449 C.ar    1  UNL1        0.0952
      2 C         142.3048  141.3071  168.3738 C.ar    1  UNL1        0.0146
      3 C         143.2853  142.1729  169.1079 C.ar    1  UNL1        0.0369
      4 S         142.6047  142.7083  170.3328 S.2     1  UNL1       -0.0721
      5 C         141.2035  142.1733  170.3556 C.ar    1  UNL1        0.0782
      6 N         140.1693  142.4549  171.4049 N.pl3   1  UNL1       -0.3519
      7 H         140.3872  143.0394  172.1665 H       1  UNL1        0.1428
      8 H         139.2725  142.0552  171.3320 H       1  UNL1        0.1428
      9 C         142.5652  140.5704  167.0934 C.ar    1  UNL1        0.0040
     10 C         142.9184  139.1129  167.1251 C.ar    1  UNL1        0.0033
     11 C         143.1788  138.3763  165.8447 C.ar    1  UNL1        0.0400
     12 C         143.0860  139.0971  164.5325 C.ar    1  UNL1        0.1724
     13 C         142.7328  140.5547  164.5008 C.ar    1  UNL1        0.1724
     14 C         142.4724  141.2912  165.7812 C.ar    1  UNL1        0.0401
     15 O         143.3464  138.3604  163.2521 O.3     1  UNL1       -0.4684
     16 C         142.1983  137.8361  162.4416 C.3     1  UNL1        0.2526
     17 O         142.6401  141.2755  163.1886 O.3     1  UNL1       -0.4684
     18 C         141.3185  141.8042  162.7151 C.3     1  UNL1        0.2526
     19 C         139.7661  140.5709  168.7710 C.2     1  UNL1        0.3433
     20 O         138.9754  139.8527  169.8241 O.2     1  UNL1       -0.2448
     21 O         139.3045  140.5527  167.3438 O.3     1  UNL1       -0.4404
     22 C         139.1844  139.2494  166.6110 C.3     1  UNL1        0.2355
     23 C         137.8706  140.4678  163.0699 C.ar    1  UNL1        0.1385
     24 C         138.0191  139.2110  162.2647 C.ar    1  UNL1        0.0369
     25 C         138.5560  137.9670  162.9083 C.ar    1  UNL1        0.0029
     26 C         138.9444  137.9798  164.3570 C.ar    1  UNL1       -0.0005
     27 C         138.7960  139.2365  165.1622 C.ar    1  UNL1        0.0243
     28 C         138.2590  140.4806  164.5187 C.ar    1  UNL1        0.0362
     29 C         137.5854  143.0501  163.0552 C.3     1  UNL1        0.2525
     30 O         137.3337  141.7118  162.4263 O.3     1  UNL1       -0.4714
@<TRIPOS>BOND
     1    29    30    1
     2    30    23    1
     3    23    24   ar
     4    24    25   ar
     5    25    26   ar
     6    26    27   ar
     7    27    22    1
     8    22    21    1
     9    21    19    1
    10    19    20    2
    11    19     1    1
    12     1     2   ar
    13     2     9    1
    14     9    10   ar
    15    10    11   ar
    16    11    12   ar
    17    12    15    1
    18    15    16    1
    19    12    13   ar
    20    13    17    1
    21    17    18    1
    22    13    14   ar
    23     2     3   ar
    24     3     4   ar
    25     4     5   ar
    26     5     6    1
    27    27    28   ar
    28    28    23   ar
    29     5     1   ar
    30    14     9   ar
    31     6     7    1
    32     6     8    1
@<TRIPOS>MOLECULE
*****
 30 32 0 0 0
SMALL
GASTEIGER

@<TRIPOS>ATOM
      1 C         140.4847  144.3407  164.3189 C.ar    1  UNL1        0.0952
      2 C         141.5592  143.5109  164.9568 C.ar    1  UNL1        0.0146
      3 C         142.8619  143.8518  164.2960 C.ar    1  UNL1        0.0369
      4 S         142.5925  144.8923  163.2496 S.2     1  UNL1       -0.0721
      5 C         141.1233  145.1944  163.2638 C.ar    1  UNL1        0.0782
      6 N         140.4169  146.1776  162.3783 N.pl3   1  UNL1       -0.3519
      7 H         140.9255  146.6940  161.7120 H       1  UNL1        0.1428
      8 H         139.4445  146.3065  162.4633 H       1  UNL1        0.1428
      9 C         141.3651  142.5151  166.0617 C.ar    1  UNL1        0.0040
     10 C         140.4727  142.8456  167.2212 C.ar    1  UNL1        0.0033
     11 C         140.2786  141.8498  168.3260 C.ar    1  UNL1        0.0400
     12 C         140.9769  140.5234  168.2713 C.ar    1  UNL1        0.1724
     13 C         141.8694  140.1928  167.1118 C.ar    1  UNL1        0.1724
     14 C         142.0634  141.1887  166.0070 C.ar    1  UNL1        0.0401
     15 O         140.7828  139.5275  169.3761 O.3     1  UNL1       -0.4684
     16 C         140.2262  139.9712  170.6965 C.3     1  UNL1        0.2526
     17 O         142.5677  138.8664  167.0572 O.3     1  UNL1       -0.4684
     18 C         143.2343  138.4214  165.7892 C.3     1  UNL1        0.2526
     19 C         139.0275  144.3203  164.6738 C.2     1  UNL1        0.3433
     20 O         138.4866  145.2937  165.6788 O.2     1  UNL1       -0.2448
     21 O         138.1110  143.3265  164.0237 O.3     1  UNL1       -0.4404
     22 C         138.6811  142.1722  163.2540 C.3     1  UNL1        0.2355
     23 C         139.9490  138.4791  163.9636 C.ar    1  UNL1        0.1385
     24 C         139.2765  138.1954  165.2740 C.ar    1  UNL1        0.0369
     25 C         138.4055  139.2373  165.9111 C.ar    1  UNL1        0.0029
     26 C         138.2071  140.5629  165.2378 C.ar    1  UNL1       -0.0005
     27 C         138.8796  140.8466  163.9274 C.ar    1  UNL1        0.0243
     28 C         139.7505  139.8047  163.2903 C.ar    1  UNL1        0.0362
     29 C         141.6032  137.7679  162.0907 C.3     1  UNL1        0.2525
     30 O         140.8200  137.4372  163.3265 O.3     1  UNL1       -0.4714
@<TRIPOS>BOND
     1    29    30    1
     2    30    23    1
     3    23    24   ar
     4    24    25   ar
     5    25    26   ar
     6    26    27   ar
     7    27    22    1
     8    22    21    1
     9    21    19    1
    10    19    20    2
    11    19     1    1
    12     1     2   ar
    13     2     9    1
    14     9    10   ar
    15    10    11   ar
    16    11    12   ar
    17    12    15    1
    18    15    16    1
    19    12    13   ar
    20    13    17    1
    21    17    18    1
    22    13    14   ar
    23     2     3   ar
    24     3     4   ar
    25     4     5   ar
    26     5     6    1
    27    27    28   ar
    28    28    23   ar
    29     5     1   ar
    30    14     9   ar
    31     6     7    1
    32     6     8    1
@<TRIPOS>MOLECULE
*****
 30 32 0 0 0
SMALL
GASTEIGER

@<TRIPOS>ATOM
      1 C         140.0642  144.2371  164.3506 C.ar    1  UNL1        0.0952
      2 C         141.2164  143.3801  164.7842 C.ar    1  UNL1        0.0146
      3 C         142.3845  143.6895  163.8955 C.ar    1  UNL1        0.0369
      4 S         141.9542  144.7377  162.9125 S.2     1  UNL1       -0.0721
      5 C         140.5202  145.0761  163.1938 C.ar    1  UNL1        0.0782
      6 N         139.6883  146.0777  162.4490 N.pl3   1  UNL1       -0.3519
      7 H         140.0792  146.5822  161.6994 H       1  UNL1        0.1428
      8 H         138.7513  146.2306  162.7098 H       1  UNL1        0.1428
      9 C         141.2029  142.3880  165.9092 C.ar    1  UNL1        0.0040
     10 C         141.7976  141.0247  165.7142 C.ar    1  UNL1        0.0033
     11 C         141.7841  140.0327  166.8391 C.ar    1  UNL1        0.0400
     12 C         141.1759  140.4037  168.1591 C.ar    1  UNL1        0.1724
     13 C         140.5812  141.7670  168.3541 C.ar    1  UNL1        0.1724
     14 C         140.5947  142.7590  167.2292 C.ar    1  UNL1        0.0401
     15 O         141.1624  139.4116  169.2840 O.3     1  UNL1       -0.4684
     16 C         142.4310  139.0932  170.0185 C.3     1  UNL1        0.2526
     17 O         139.9730  142.1380  169.6741 O.3     1  UNL1       -0.4684
     18 C         140.1676  143.5184  170.2281 C.3     1  UNL1        0.2526
     19 C         138.6963  144.2524  164.9657 C.2     1  UNL1        0.3433
     20 O         138.3059  145.3599  165.8990 O.2     1  UNL1       -0.2448
     21 O         137.7186  143.1601  164.6476 O.3     1  UNL1       -0.4404
     22 C         138.0616  142.1223  163.6205 C.3     1  UNL1        0.2355
     23 C         139.4585  138.4089  163.5194 C.ar    1  UNL1        0.1385
     24 C         139.1432  137.9495  164.9121 C.ar    1  UNL1        0.0369
     25 C         138.4673  138.8809  165.8742 C.ar    1  UNL1        0.0029
     26 C         138.1068  140.2718  165.4437 C.ar    1  UNL1       -0.0005
     27 C         138.4221  140.7313  164.0510 C.ar    1  UNL1        0.0243
     28 C         139.0980  139.7998  163.0889 C.ar    1  UNL1        0.0362
     29 C         141.5859  137.6632  162.2279 C.3     1  UNL1        0.2525
     30 O         140.1344  137.4775  162.5573 O.3     1  UNL1       -0.4714
@<TRIPOS>BOND
     1    29    30    1
     2    30    23    1
     3    23    24   ar
     4    24    25   ar
     5    25    26   ar
     6    26    27   ar
     7    27    22    1
     8    22    21    1
     9    21    19    1
    10    19    20    2
    11    19     1    1
    12     1     2   ar
    13     2     9    1
    14     9    10   ar
    15    10    11   ar
    16    11    12   ar
    17    12    15    1
    18    15    16    1
    19    12    13   ar
    20    13    17    1
    21    17    18    1
    22    13    14   ar
    23     2     3   ar
    24     3     4   ar
    25     4     5   ar
    26     5     6    1
    27    27    28   ar
    28    28    23   ar
    29     5     1   ar
    30    14     9   ar
    31     6     7    1
    32     6     8    1
@<TRIPOS>MOLECULE
*****
 30 32 0 0 0
SMALL
GASTEIGER

@<TRIPOS>ATOM
      1 C         143.1095  143.6878  164.6848 C.ar    1  UNL1        0.0952
      2 C         141.8518  143.1696  165.3170 C.ar    1  UNL1        0.0146
      3 C         140.6858  143.7779  164.5957 C.ar    1  UNL1        0.0369
      4 S         141.2228  144.6721  163.5177 S.2     1  UNL1       -0.0721
      5 C         142.7207  144.6164  163.5728 C.ar    1  UNL1        0.0782
      6 N         143.6642  145.3590  162.6738 N.pl3   1  UNL1       -0.3519
      7 H         143.3111  145.9485  161.9687 H       1  UNL1        0.1428
      8 H         144.6367  145.2569  162.7887 H       1  UNL1        0.1428
      9 C         141.7738  142.2113  166.4683 C.ar    1  UNL1        0.0040
     10 C         142.8935  142.1425  167.4642 C.ar    1  UNL1        0.0033
     11 C         142.8154  141.1841  168.6155 C.ar    1  UNL1        0.0400
     12 C         141.6177  140.2946  168.7710 C.ar    1  UNL1        0.1724
     13 C         140.4981  140.3634  167.7751 C.ar    1  UNL1        0.1724
     14 C         140.5761  141.3217  166.6239 C.ar    1  UNL1        0.0401
     15 O         141.5398  139.3363  169.9223 O.3     1  UNL1       -0.4684
     16 C         142.6853  138.4104  170.2064 C.3     1  UNL1        0.2526
     17 O         139.3004  139.4738  167.9307 O.3     1  UNL1       -0.4684
     18 C         138.4325  139.1703  166.7454 C.3     1  UNL1        0.2526
     19 C         144.5100  143.3387  165.0930 C.2     1  UNL1        0.3433
     20 O         145.2506  144.2160  166.0583 O.2     1  UNL1       -0.2448
     21 O         145.1699  142.1122  164.5359 O.3     1  UNL1       -0.4404
     22 C         144.4505  141.2655  163.5282 C.3     1  UNL1        0.2355
     23 C         141.2137  138.9760  163.7053 C.ar    1  UNL1        0.1385
     24 C         141.5324  138.1266  164.8998 C.ar    1  UNL1        0.0369
     25 C         142.8238  138.3234  165.6371 C.ar    1  UNL1        0.0029
     26 C         143.7965  139.3697  165.1799 C.ar    1  UNL1       -0.0005
     27 C         143.4778  140.2192  163.9854 C.ar    1  UNL1        0.0243
     28 C         142.1864  140.0223  163.2482 C.ar    1  UNL1        0.0362
     29 C         138.9846  137.6824  163.3774 C.3     1  UNL1        0.2525
     30 O         139.9223  138.7792  162.9680 O.3     1  UNL1       -0.4714
@<TRIPOS>BOND
     1    29    30    1
     2    30    23    1
     3    23    24   ar
     4    24    25   ar
     5    25    26   ar
     6    26    27   ar
     7    27    22    1
     8    22    21    1
     9    21    19    1
    10    19    20    2
    11    19     1    1
    12     1     2   ar
    13     2     9    1
    14     9    10   ar
    15    10    11   ar
    16    11    12   ar
    17    12    15    1
    18    15    16    1
    19    12    13   ar
    20    13    17    1
    21    17    18    1
    22    13    14   ar
    23     2     3   ar
    24     3     4   ar
    25     4     5   ar
    26     5     6    1
    27    27    28   ar
    28    28    23   ar
    29     5     1   ar
    30    14     9   ar
    31     6     7    1
    32     6     8    1
@<TRIPOS>MOLECULE
*****
 30 32 0 0 0
SMALL
GASTEIGER

@<TRIPOS>ATOM
      1 C         141.3686  140.9835  169.2917 C.ar    1  UNL1        0.0952
      2 C         141.2680  142.2094  168.4332 C.ar    1  UNL1        0.0146
      3 C         140.4470  143.2255  169.1705 C.ar    1  UNL1        0.0369
      4 S         140.0402  142.6276  170.4847 S.2     1  UNL1       -0.0721
      5 C         140.6098  141.2420  170.5596 C.ar    1  UNL1        0.0782
      6 N         140.4488  140.2831  171.7018 N.pl3   1  UNL1       -0.3519
      7 H         139.9294  140.5460  172.4957 H       1  UNL1        0.1428
      8 H         140.8626  139.3909  171.6575 H       1  UNL1        0.1428
      9 C         141.8807  142.3880  167.0757 C.ar    1  UNL1        0.0040
     10 C         143.3651  142.5547  166.9389 C.ar    1  UNL1        0.0033
     11 C         143.9778  142.7332  165.5814 C.ar    1  UNL1        0.0400
     12 C         143.1061  142.7450  164.3607 C.ar    1  UNL1        0.1724
     13 C         141.6216  142.5782  164.4976 C.ar    1  UNL1        0.1724
     14 C         141.0090  142.3997  165.8551 C.ar    1  UNL1        0.0401
     15 O         143.7188  142.9235  163.0033 O.3     1  UNL1       -0.4684
     16 C         144.2198  144.2719  162.5780 C.3     1  UNL1        0.2526
     17 O         140.7499  142.5900  163.2770 O.3     1  UNL1       -0.4684
     18 C         140.6490  141.3660  162.4156 C.3     1  UNL1        0.2526
     19 C         142.0996  139.7209  168.9434 C.2     1  UNL1        0.3433
     20 O         142.9459  139.0354  169.9748 O.2     1  UNL1       -0.2448
     21 O         141.9843  139.1437  167.5637 O.3     1  UNL1       -0.4404
     22 C         143.2215  138.8420  166.7711 C.3     1  UNL1        0.2355
     23 C         141.8917  137.8329  163.1706 C.ar    1  UNL1        0.1385
     24 C         142.9762  138.3950  162.3001 C.ar    1  UNL1        0.0369
     25 C         144.1425  139.1060  162.9199 C.ar    1  UNL1        0.0029
     26 C         144.2243  139.2550  164.4102 C.ar    1  UNL1       -0.0005
     27 C         143.1398  138.6930  165.2807 C.ar    1  UNL1        0.0243
     28 C         141.9735  137.9819  164.6609 C.ar    1  UNL1        0.0362
     29 C         139.6061  137.9100  161.9378 C.3     1  UNL1        0.2525
     30 O         140.7254  137.1218  162.5508 O.3     1  UNL1       -0.4714
@<TRIPOS>BOND
     1    29    30    1
     2    30    23    1
     3    23    24   ar
     4    24    25   ar
     5    25    26   ar
     6    26    27   ar
     7    27    22    1
     8    22    21    1
     9    21    19    1
    10    19    20    2
    11    19     1    1
    12     1     2   ar
    13     2     9    1
    14     9    10   ar
    15    10    11   ar
    16    11    12   ar
    17    12    15    1
    18    15    16    1
    19    12    13   ar
    20    13    17    1
    21    17    18    1
    22    13    14   ar
    23     2     3   ar
    24     3     4   ar
    25     4     5   ar
    26     5     6    1
    27    27    28   ar
    28    28    23   ar
    29     5     1   ar
    30    14     9   ar
    31     6     7    1
    32     6     8    1
@<TRIPOS>MOLECULE
*****
 30 32 0 0 0
SMALL
GASTEIGER

@<TRIPOS>ATOM
      1 C         142.5880  139.9522  168.2073 C.ar    1  UNL1        0.0952
      2 C         142.2814  141.4158  168.0898 C.ar    1  UNL1        0.0146
      3 C         142.1089  141.9660  169.4745 C.ar    1  UNL1        0.0369
      4 S         142.3090  140.8424  170.4480 S.2     1  UNL1       -0.0721
      5 C         142.6050  139.5978  169.6648 C.ar    1  UNL1        0.0782
      6 N         142.8713  138.2376  170.2383 N.pl3   1  UNL1       -0.3519
      7 H         142.8607  138.1040  171.2136 H       1  UNL1        0.1428
      8 H         143.0568  137.4786  169.6394 H       1  UNL1        0.1428
      9 C         142.1672  142.1929  166.8118 C.ar    1  UNL1        0.0040
     10 C         140.8323  142.7122  166.3664 C.ar    1  UNL1        0.0033
     11 C         140.7183  143.4893  165.0885 C.ar    1  UNL1        0.0400
     12 C         141.9391  143.7471  164.2559 C.ar    1  UNL1        0.1724
     13 C         143.2740  143.2278  164.7013 C.ar    1  UNL1        0.1724
     14 C         143.3880  142.4507  165.9793 C.ar    1  UNL1        0.0401
     15 O         141.8249  144.5242  162.9780 O.3     1  UNL1       -0.4684
     16 C         140.6228  145.3861  162.7292 C.3     1  UNL1        0.2526
     17 O         144.4948  143.4855  163.8688 O.3     1  UNL1       -0.4684
     18 C         144.9803  142.4423  162.9064 C.3     1  UNL1        0.2526
     19 C         142.8342  139.0087  167.0676 C.2     1  UNL1        0.3433
     20 O         143.9346  137.9934  167.1588 O.2     1  UNL1       -0.2448
     21 O         141.9802  139.0806  165.8365 O.3     1  UNL1       -0.4404
     22 C         140.4853  139.0875  165.9600 C.3     1  UNL1        0.2355
     23 C         137.9473  140.2462  163.1377 C.ar    1  UNL1        0.1385
     24 C         137.9216  139.0284  162.2623 C.ar    1  UNL1        0.0369
     25 C         138.7505  137.8304  162.6194 C.ar    1  UNL1        0.0029
     26 C         139.6051  137.8500  163.8520 C.ar    1  UNL1       -0.0005
     27 C         139.6307  139.0678  164.7274 C.ar    1  UNL1        0.0243
     28 C         138.8019  140.2659  164.3702 C.ar    1  UNL1        0.0362
     29 C         137.6207  142.8232  163.0904 C.3     1  UNL1        0.2525
     30 O         137.1184  141.4443  162.7805 O.3     1  UNL1       -0.4714
@<TRIPOS>BOND
     1    29    30    1
     2    30    23    1
     3    23    24   ar
     4    24    25   ar
     5    25    26   ar
     6    26    27   ar
     7    27    22    1
     8    22    21    1
     9    21    19    1
    10    19    20    2
    11    19     1    1
    12     1     2   ar
    13     2     9    1
    14     9    10   ar
    15    10    11   ar
    16    11    12   ar
    17    12    15    1
    18    15    16    1
    19    12    13   ar
    20    13    17    1
    21    17    18    1
    22    13    14   ar
    23     2     3   ar
    24     3     4   ar
    25     4     5   ar
    26     5     6    1
    27    27    28   ar
    28    28    23   ar
    29     5     1   ar
    30    14     9   ar
    31     6     7    1
    32     6     8    1
@<TRIPOS>MOLECULE
*****
 30 32 0 0 0
SMALL
GASTEIGER

@<TRIPOS>ATOM
      1 C         142.3218  143.5822  164.3674 C.ar    1  UNL1        0.0952
      2 C         140.9574  143.4167  164.9682 C.ar    1  UNL1        0.0146
      3 C         140.0191  144.3399  164.2490 C.ar    1  UNL1        0.0369
      4 S         140.8036  145.0760  163.2036 S.2     1  UNL1       -0.0721
      5 C         142.2267  144.6077  163.2768 C.ar    1  UNL1        0.0782
      6 N         143.3564  145.0817  162.4114 N.pl3   1  UNL1       -0.3519
      7 H         143.1938  145.7620  161.7185 H       1  UNL1        0.1428
      8 H         144.2605  144.7125  162.5361 H       1  UNL1        0.1428
      9 C         140.5949  142.4906  166.0911 C.ar    1  UNL1        0.0040
     10 C         140.7800  142.9283  167.5139 C.ar    1  UNL1        0.0033
     11 C         140.4174  142.0021  168.6367 C.ar    1  UNL1        0.0400
     12 C         139.8699  140.6382  168.3369 C.ar    1  UNL1        0.1724
     13 C         139.6849  140.2005  166.9141 C.ar    1  UNL1        0.1724
     14 C         140.0474  141.1266  165.7913 C.ar    1  UNL1        0.0401
     15 O         139.5074  139.7121  169.4597 O.3     1  UNL1       -0.4684
     16 C         140.1198  139.9019  170.8158 C.3     1  UNL1        0.2526
     17 O         139.1373  138.8366  166.6143 O.3     1  UNL1       -0.4684
     18 C         137.6794  138.5512  166.8227 C.3     1  UNL1        0.2526
     19 C         143.5632  142.8507  164.7839 C.2     1  UNL1        0.3433
     20 O         143.9143  142.7364  166.2378 O.2     1  UNL1       -0.2448
     21 O         144.4537  142.2333  163.7466 O.3     1  UNL1       -0.4404
     22 C         144.8734  140.7990  163.8759 C.3     1  UNL1        0.2355
     23 C         142.0631  138.0762  163.2140 C.ar    1  UNL1        0.1385
     24 C         141.7861  137.6090  164.6122 C.ar    1  UNL1        0.0369
     25 C         142.5383  138.2051  165.7650 C.ar    1  UNL1        0.0029
     26 C         143.5673  139.2684  165.5196 C.ar    1  UNL1       -0.0005
     27 C         143.8443  139.7356  164.1214 C.ar    1  UNL1        0.0243
     28 C         143.0921  139.1395  162.9686 C.ar    1  UNL1        0.0362
     29 C         139.9212  137.9501  161.7490 C.3     1  UNL1        0.2525
     30 O         141.3109  137.4800  162.0612 O.3     1  UNL1       -0.4714
@<TRIPOS>BOND
     1    29    30    1
     2    30    23    1
     3    23    24   ar
     4    24    25   ar
     5    25    26   ar
     6    26    27   ar
     7    27    22    1
     8    22    21    1
     9    21    19    1
    10    19    20    2
    11    19     1    1
    12     1     2   ar
    13     2     9    1
    14     9    10   ar
    15    10    11   ar
    16    11    12   ar
    17    12    15    1
    18    15    16    1
    19    12    13   ar
    20    13    17    1
    21    17    18    1
    22    13    14   ar
    23     2     3   ar
    24     3     4   ar
    25     4     5   ar
    26     5     6    1
    27    27    28   ar
    28    28    23   ar
    29     5     1   ar
    30    14     9   ar
    31     6     7    1
    32     6     8    1
@<TRIPOS>MOLECULE
*****
 30 32 0 0 0
SMALL
GASTEIGER

@<TRIPOS>ATOM
      1 C         140.0351  141.0392  168.6105 C.ar    1  UNL1        0.0952
      2 C         140.3935  142.4172  168.1388 C.ar    1  UNL1        0.0146
      3 C         140.4819  143.3102  169.3407 C.ar    1  UNL1        0.0369
      4 S         140.1782  142.4841  170.5554 S.2     1  UNL1       -0.0721
      5 C         139.9021  141.0805  170.1040 C.ar    1  UNL1        0.0782
      6 N         139.5540  139.9217  170.9906 N.pl3   1  UNL1       -0.3519
      7 H         139.4900  140.0490  171.9647 H       1  UNL1        0.1428
      8 H         139.3895  139.0338  170.5984 H       1  UNL1        0.1428
      9 C         140.6231  142.8298  166.7150 C.ar    1  UNL1        0.0040
     10 C         141.8730  142.4045  166.0031 C.ar    1  UNL1        0.0033
     11 C         142.1025  142.8171  164.5794 C.ar    1  UNL1        0.0400
     12 C         141.0822  143.6552  163.8675 C.ar    1  UNL1        0.1724
     13 C         139.8323  144.0806  164.5795 C.ar    1  UNL1        0.1724
     14 C         139.6028  143.6679  166.0032 C.ar    1  UNL1        0.0401
     15 O         141.3119  144.0678  162.4438 O.3     1  UNL1       -0.4684
     16 C         142.6895  143.9955  161.8549 C.3     1  UNL1        0.2526
     17 O         138.8121  144.9186  163.8677 O.3     1  UNL1       -0.4684
     18 C         137.7308  144.2608  163.0625 C.3     1  UNL1        0.2526
     19 C         139.8435  139.8318  167.7413 C.2     1  UNL1        0.3433
     20 O         140.9995  139.2767  166.9633 O.2     1  UNL1       -0.2448
     21 O         138.4958  139.1795  167.6502 O.3     1  UNL1       -0.4404
     22 C         138.1033  138.4396  166.4059 C.3     1  UNL1        0.2355
     23 C         139.7988  138.4956  162.8181 C.ar    1  UNL1        0.1385
     24 C         139.4990  139.9000  162.3848 C.ar    1  UNL1        0.0369
     25 C         138.7340  140.8176  163.2919 C.ar    1  UNL1        0.0029
     26 C         138.2687  140.3308  164.6322 C.ar    1  UNL1       -0.0005
     27 C         138.5685  138.9264  165.0655 C.ar    1  UNL1        0.0243
     28 C         139.3335  138.0088  164.1585 C.ar    1  UNL1        0.0362
     29 C         141.2818  138.1317  160.7162 C.3     1  UNL1        0.2525
     30 O         140.5638  137.5780  161.9111 O.3     1  UNL1       -0.4714
@<TRIPOS>BOND
     1    29    30    1
     2    30    23    1
     3    23    24   ar
     4    24    25   ar
     5    25    26   ar
     6    26    27   ar
     7    27    22    1
     8    22    21    1
     9    21    19    1
    10    19    20    2
    11    19     1    1
    12     1     2   ar
    13     2     9    1
    14     9    10   ar
    15    10    11   ar
    16    11    12   ar
    17    12    15    1
    18    15    16    1
    19    12    13   ar
    20    13    17    1
    21    17    18    1
    22    13    14   ar
    23     2     3   ar
    24     3     4   ar
    25     4     5   ar
    26     5     6    1
    27    27    28   ar
    28    28    23   ar
    29     5     1   ar
    30    14     9   ar
    31     6     7    1
    32     6     8    1
@<TRIPOS>MOLECULE
*****
 30 32 0 0 0
SMALL
GASTEIGER

@<TRIPOS>ATOM
      1 C         141.4156  141.6265  169.0788 C.ar    1  UNL1        0.0952
      2 C         141.4281  140.2262  168.5413 C.ar    1  UNL1        0.0146
      3 C         142.3092  139.3972  169.4281 C.ar    1  UNL1        0.0369
      4 S         142.8414  140.2852  170.5136 S.2     1  UNL1       -0.0721
      5 C         142.2891  141.6630  170.2977 C.ar    1  UNL1        0.0782
      6 N         142.5623  142.8660  171.1510 N.pl3   1  UNL1       -0.3519
      7 H         143.1528  142.7896  171.9350 H       1  UNL1        0.1428
      8 H         142.1511  143.7320  170.9270 H       1  UNL1        0.1428
      9 C         140.6892  139.7401  167.3299 C.ar    1  UNL1        0.0040
     10 C         139.1894  139.7111  167.3275 C.ar    1  UNL1        0.0033
     11 C         138.4506  139.2250  166.1160 C.ar    1  UNL1        0.0400
     12 C         139.2114  138.7680  164.9068 C.ar    1  UNL1        0.1724
     13 C         140.7111  138.7971  164.9091 C.ar    1  UNL1        0.1724
     14 C         141.4500  139.2831  166.1206 C.ar    1  UNL1        0.0401
     15 O         138.4724  138.2820  163.6953 O.3     1  UNL1       -0.4684
     16 C         138.3609  139.1584  162.4831 C.3     1  UNL1        0.2526
     17 O         141.4719  138.3400  163.6998 O.3     1  UNL1       -0.4684
     18 C         142.8930  138.7763  163.4987 C.3     1  UNL1        0.2526
     19 C         140.6620  142.7867  168.4991 C.2     1  UNL1        0.3433
     20 O         140.0771  143.8292  169.4052 O.2     1  UNL1       -0.2448
     21 O         140.4932  142.9043  167.0132 O.3     1  UNL1       -0.4404
     22 C         139.5859  143.9534  166.4422 C.3     1  UNL1        0.2355
     23 C         138.7934  144.6523  162.6168 C.ar    1  UNL1        0.1385
     24 C         137.9263  143.4736  162.2871 C.ar    1  UNL1        0.0369
     25 C         137.6125  142.4548  163.3423 C.ar    1  UNL1        0.0029
     26 C         138.1656  142.6147  164.7273 C.ar    1  UNL1       -0.0005
     27 C         139.0327  143.7934  165.0571 C.ar    1  UNL1        0.0243
     28 C         139.3466  144.8122  164.0019 C.ar    1  UNL1        0.0362
     29 C         140.3110  145.4955  160.6841 C.3     1  UNL1        0.2525
     30 O         139.1073  145.6711  161.5616 O.3     1  UNL1       -0.4714
@<TRIPOS>BOND
     1    29    30    1
     2    30    23    1
     3    23    24   ar
     4    24    25   ar
     5    25    26   ar
     6    26    27   ar
     7    27    22    1
     8    22    21    1
     9    21    19    1
    10    19    20    2
    11    19     1    1
    12     1     2   ar
    13     2     9    1
    14     9    10   ar
    15    10    11   ar
    16    11    12   ar
    17    12    15    1
    18    15    16    1
    19    12    13   ar
    20    13    17    1
    21    17    18    1
    22    13    14   ar
    23     2     3   ar
    24     3     4   ar
    25     4     5   ar
    26     5     6    1
    27    27    28   ar
    28    28    23   ar
    29     5     1   ar
    30    14     9   ar
    31     6     7    1
    32     6     8    1
