@<TRIPOS>MOLECULE
*****
 39 44 0 0 0
SMALL
GASTEIGER

@<TRIPOS>ATOM
      1 C         140.1521  145.4802  159.7823 C.3     1  UNL1        0.0294
      2 C         141.3636  145.5067  158.8981 C.3     1  UNL1        0.0666
      3 S         142.1264  144.2427  158.6332 S.3     1  UNL1       -0.0756
      4 C         141.9890  141.3288  161.1937 C.ar    1  UNL1        0.1669
      5 N         143.2250  142.0508  161.6423 N.ar    1  UNL1       -0.1282
      6 N         143.4269  143.2302  160.7377 N.ar    1  UNL1       -0.1221
      7 C         142.3157  143.2371  159.7301 C.ar    1  UNL1        0.1932
      8 N         141.4271  142.0620  160.0120 N.ar    1  UNL1       -0.2884
      9 C         140.1931  141.6861  159.2464 C.3     1  UNL1        0.1340
     10 C         143.7463  137.9435  166.9123 C.3     1  UNL1        0.0521
     11 C         143.1637  138.4804  165.6386 C.ar    1  UNL1        0.0593
     12 C         143.7370  139.7182  165.0148 C.ar    1  UNL1        0.0147
     13 C         143.1543  140.2551  163.7412 C.ar    1  UNL1        0.0028
     14 C         141.9984  139.5541  163.0912 C.ar    1  UNL1        0.0206
     15 C         141.4158  140.0910  161.8175 C.ar    1  UNL1        0.0374
     16 C         140.2598  139.3900  161.1676 C.ar    1  UNL1        0.0031
     17 C         139.6865  138.1522  161.7913 C.ar    1  UNL1        0.0016
     18 C         140.2691  137.6153  163.0650 C.ar    1  UNL1        0.0191
     19 C         141.4251  138.3163  163.7149 C.ar    1  UNL1        0.0810
     20 N         142.0077  137.7794  164.9887 N.ar    1  UNL1       -0.2497
     21 C         140.3011  145.6587  161.2642 C.3     1  UNL1        0.0730
     22 N         140.0138  144.5142  162.1902 N.3     1  UNL1       -0.2720
     23 C         138.8561  143.6411  161.8060 C.3     1  UNL1        0.0768
     24 C         138.3208  142.4322  162.5148 C.3     1  UNL1        0.0434
     25 C         138.8111  141.7979  163.7824 C.ar    1  UNL1       -0.0217
     26 C         137.9890  140.5977  164.1483 C.ar    1  UNL1       -0.0028
     27 C         138.3135  139.8154  165.3862 C.ar    1  UNL1        0.0220
     28 C         139.4601  140.2331  166.2585 C.ar    1  UNL1        0.1184
     29 N         140.0139  139.6621  167.5302 N.ar    1  UNL1       -0.2075
     30 C         141.1783  140.5093  167.9504 C.ar    1  UNL1        0.2679
     31 O         141.3441  141.6040  166.9383 O.2     1  UNL1       -0.4341
     32 C         140.2823  141.4333  165.8926 C.ar    1  UNL1        0.1603
     33 C         139.9578  142.2157  164.6547 C.ar    1  UNL1        0.0114
     34 C         140.8973  143.3710  164.4745 C.3     1  UNL1        0.0465
     35 C         140.9222  144.3939  163.3777 C.3     1  UNL1        0.0769
     36 C         142.0276  140.2989  169.1686 C.3     1  UNL1        0.3303
     37 C         142.8771  140.0885  170.3869 C.3     1  UNL1        0.0822
     38 F         143.1252  141.1078  168.5431 F       1  UNL1       -0.1945
     39 F         140.9301  139.4901  169.7941 F       1  UNL1       -0.1945
@<TRIPOS>BOND
     1    10    11    1
     2    11    12   ar
     3    12    13   ar
     4    13    14   ar
     5    14    15   ar
     6    15     4    1
     7     4     5   ar
     8     5     6   ar
     9     6     7   ar
    10     7     3    1
    11     3     2    1
    12     2     1    1
    13     1    21    1
    14    21    22    1
    15    22    23    1
    16    23    24    1
    17    24    25    1
    18    25    26   ar
    19    26    27   ar
    20    27    28   ar
    21    28    29   ar
    22    29    30   ar
    23    30    36    1
    24    36    37    1
    25    36    38    1
    26    36    39    1
    27    30    31   ar
    28    31    32   ar
    29    32    33   ar
    30    33    34    1
    31    34    35    1
    32     7     8   ar
    33     8     9    1
    34    15    16   ar
    35    16    17   ar
    36    17    18   ar
    37    18    19   ar
    38    19    20   ar
    39    20    11   ar
    40    19    14   ar
    41     8     4   ar
    42    35    22    1
    43    33    25   ar
    44    32    28   ar
@<TRIPOS>MOLECULE
*****
 39 44 0 0 0
SMALL
GASTEIGER

@<TRIPOS>ATOM
      1 C         139.6368  138.6594  158.3192 C.3     1  UNL1        0.0294
      2 C         139.0537  139.6958  157.4048 C.3     1  UNL1        0.0666
      3 S         138.0687  140.6950  157.9352 S.3     1  UNL1       -0.0756
      4 C         138.9531  142.9543  160.9649 C.ar    1  UNL1        0.1669
      5 N         139.4619  143.7859  159.8248 N.ar    1  UNL1       -0.1282
      6 N         139.1925  143.0408  158.5512 N.ar    1  UNL1       -0.1221
      7 C         138.5172  141.7487  158.9040 C.ar    1  UNL1        0.1932
      8 N         138.3693  141.6953  160.3957 N.ar    1  UNL1       -0.2884
      9 C         137.7468  140.5787  161.1806 C.3     1  UNL1        0.1340
     10 C         144.2673  143.1740  165.3194 C.3     1  UNL1        0.0521
     11 C         142.9547  143.2100  164.5942 C.ar    1  UNL1        0.0593
     12 C         142.8909  142.8463  163.1403 C.ar    1  UNL1        0.0147
     13 C         141.5783  142.8823  162.4152 C.ar    1  UNL1        0.0028
     14 C         140.3295  143.2819  163.1439 C.ar    1  UNL1        0.0206
     15 C         139.0169  143.3179  162.4186 C.ar    1  UNL1        0.0374
     16 C         137.7683  143.7175  163.1474 C.ar    1  UNL1        0.0031
     17 C         137.8321  144.0812  164.6013 C.ar    1  UNL1        0.0016
     18 C         139.1446  144.0452  165.3264 C.ar    1  UNL1        0.0191
     19 C         140.3934  143.6456  164.5977 C.ar    1  UNL1        0.0810
     20 N         141.7059  143.6096  165.3229 N.ar    1  UNL1       -0.2497
     21 C         141.1195  138.6018  158.5387 C.3     1  UNL1        0.0730
     22 N         141.6825  138.8043  159.9142 N.3     1  UNL1       -0.2720
     23 C         143.1790  138.7803  160.0149 C.3     1  UNL1        0.0768
     24 C         144.0372  138.9501  161.2334 C.3     1  UNL1        0.0434
     25 C         143.6109  139.1857  162.6520 C.ar    1  UNL1       -0.0217
     26 C         144.7935  139.2990  163.5680 C.ar    1  UNL1       -0.0028
     27 C         144.5862  139.5363  165.0345 C.ar    1  UNL1        0.0220
     28 C         143.1965  139.6604  165.5852 C.ar    1  UNL1        0.1184
     29 N         142.6850  139.8938  166.9758 N.ar    1  UNL1       -0.2075
     30 C         141.1864  139.9248  166.9194 C.ar    1  UNL1        0.2679
     31 O         140.7716  139.7105  165.4939 O.2     1  UNL1       -0.4341
     32 C         142.0140  139.5471  164.6693 C.ar    1  UNL1        0.1603
     33 C         142.2212  139.3097  163.2027 C.ar    1  UNL1        0.0114
     34 C         140.9145  139.2288  162.4707 C.3     1  UNL1        0.0465
     35 C         140.6748  139.0038  161.0071 C.3     1  UNL1        0.0769
     36 C         140.2643  140.1335  168.0840 C.3     1  UNL1        0.3303
     37 C         139.3424  140.3421  169.2487 C.3     1  UNL1        0.0822
     38 F         141.2673  139.4880  168.9937 F       1  UNL1       -0.1945
     39 F         139.2614  140.7789  167.1743 F       1  UNL1       -0.1945
@<TRIPOS>BOND
     1    10    11    1
     2    11    12   ar
     3    12    13   ar
     4    13    14   ar
     5    14    15   ar
     6    15     4    1
     7     4     5   ar
     8     5     6   ar
     9     6     7   ar
    10     7     3    1
    11     3     2    1
    12     2     1    1
    13     1    21    1
    14    21    22    1
    15    22    23    1
    16    23    24    1
    17    24    25    1
    18    25    26   ar
    19    26    27   ar
    20    27    28   ar
    21    28    29   ar
    22    29    30   ar
    23    30    36    1
    24    36    37    1
    25    36    38    1
    26    36    39    1
    27    30    31   ar
    28    31    32   ar
    29    32    33   ar
    30    33    34    1
    31    34    35    1
    32     7     8   ar
    33     8     9    1
    34    15    16   ar
    35    16    17   ar
    36    17    18   ar
    37    18    19   ar
    38    19    20   ar
    39    20    11   ar
    40    19    14   ar
    41     8     4   ar
    42    35    22    1
    43    33    25   ar
    44    32    28   ar
@<TRIPOS>MOLECULE
*****
 39 44 0 0 0
SMALL
GASTEIGER

@<TRIPOS>ATOM
      1 C         139.5399  142.6146  158.0023 C.3     1  UNL1        0.0294
      2 C         139.6012  144.0725  157.6545 C.3     1  UNL1        0.0666
      3 S         140.6853  144.9356  158.2288 S.3     1  UNL1       -0.0756
      4 C         142.8876  143.7316  161.1895 C.ar    1  UNL1        0.1669
      5 N         143.6213  143.1393  160.0228 N.ar    1  UNL1       -0.1282
      6 N         142.8856  143.5182  158.7719 N.ar    1  UNL1       -0.1221
      7 C         141.6972  144.3447  159.1653 C.ar    1  UNL1        0.1932
      8 N         141.6985  144.4765  160.6594 N.ar    1  UNL1       -0.2884
      9 C         140.6881  145.2224  161.4796 C.3     1  UNL1        0.1340
     10 C         142.9213  138.2719  165.3659 C.3     1  UNL1        0.0521
     11 C         143.0098  139.6044  164.6826 C.ar    1  UNL1        0.0593
     12 C         142.6223  139.7343  163.2393 C.ar    1  UNL1        0.0147
     13 C         142.7108  141.0667  162.5561 C.ar    1  UNL1        0.0028
     14 C         143.1866  142.2692  163.3160 C.ar    1  UNL1        0.0206
     15 C         143.2751  143.6016  162.6327 C.ar    1  UNL1        0.0374
     16 C         143.7510  144.8040  163.3927 C.ar    1  UNL1        0.0031
     17 C         144.1385  144.6741  164.8360 C.ar    1  UNL1        0.0016
     18 C         144.0500  143.3418  165.5192 C.ar    1  UNL1        0.0191
     19 C         143.5741  142.1393  164.7593 C.ar    1  UNL1        0.0810
     20 N         143.4857  140.8069  165.4426 N.ar    1  UNL1       -0.2497
     21 C         138.3503  142.0675  158.7338 C.3     1  UNL1        0.0730
     22 N         138.5329  141.3795  160.0542 N.3     1  UNL1       -0.2720
     23 C         138.3138  139.8955  160.0505 C.3     1  UNL1        0.0768
     24 C         138.4181  138.9320  161.1955 C.3     1  UNL1        0.0434
     25 C         138.7674  139.2143  162.6265 C.ar    1  UNL1       -0.0217
     26 C         138.7600  137.9606  163.4501 C.ar    1  UNL1       -0.0028
     27 C         139.0838  138.0226  164.9134 C.ar    1  UNL1        0.0220
     28 C         139.4150  139.3382  165.5533 C.ar    1  UNL1        0.1184
     29 N         139.7723  139.7073  166.9626 N.ar    1  UNL1       -0.2075
     30 C         140.0006  141.1891  167.0101 C.ar    1  UNL1        0.2679
     31 O         139.7843  141.7359  165.6301 O.2     1  UNL1       -0.4341
     32 C         139.4224  140.5920  164.7297 C.ar    1  UNL1        0.1603
     33 C         139.0986  140.5300  163.2664 C.ar    1  UNL1        0.0114
     34 C         139.1623  141.8882  162.6331 C.3     1  UNL1        0.0465
     35 C         138.9105  142.2662  161.2034 C.3     1  UNL1        0.0769
     36 C         140.3787  141.9845  168.2242 C.3     1  UNL1        0.3303
     37 C         140.7568  142.7798  169.4386 C.3     1  UNL1        0.0822
     38 F         139.4371  141.1639  169.0550 F       1  UNL1       -0.1945
     39 F         141.3203  142.8050  167.3935 F       1  UNL1       -0.1945
@<TRIPOS>BOND
     1    10    11    1
     2    11    12   ar
     3    12    13   ar
     4    13    14   ar
     5    14    15   ar
     6    15     4    1
     7     4     5   ar
     8     5     6   ar
     9     6     7   ar
    10     7     3    1
    11     3     2    1
    12     2     1    1
    13     1    21    1
    14    21    22    1
    15    22    23    1
    16    23    24    1
    17    24    25    1
    18    25    26   ar
    19    26    27   ar
    20    27    28   ar
    21    28    29   ar
    22    29    30   ar
    23    30    36    1
    24    36    37    1
    25    36    38    1
    26    36    39    1
    27    30    31   ar
    28    31    32   ar
    29    32    33   ar
    30    33    34    1
    31    34    35    1
    32     7     8   ar
    33     8     9    1
    34    15    16   ar
    35    16    17   ar
    36    17    18   ar
    37    18    19   ar
    38    19    20   ar
    39    20    11   ar
    40    19    14   ar
    41     8     4   ar
    42    35    22    1
    43    33    25   ar
    44    32    28   ar
@<TRIPOS>MOLECULE
*****
 39 44 0 0 0
SMALL
GASTEIGER

@<TRIPOS>ATOM
      1 C         141.1392  144.6049  157.6545 C.3     1  UNL1        0.0294
      2 C         139.7307  144.3588  157.2010 C.3     1  UNL1        0.0666
      3 S         139.0994  143.0144  157.4108 S.3     1  UNL1       -0.0756
      4 C         139.5462  140.9168  160.6459 C.ar    1  UNL1        0.1669
      5 N         138.5923  141.9748  161.1159 N.ar    1  UNL1       -0.1282
      6 N         138.3089  142.8893  159.9612 N.ar    1  UNL1       -0.1221
      7 C         139.0875  142.3965  158.7776 C.ar    1  UNL1        0.1932
      8 N         139.8522  141.1775  159.2008 N.ar    1  UNL1       -0.2884
      9 C         140.7631  140.3622  158.3315 C.3     1  UNL1        0.1340
     10 C         137.9748  138.8291  167.0038 C.3     1  UNL1        0.0521
     11 C         138.5054  139.0707  165.6217 C.ar    1  UNL1        0.0593
     12 C         137.9543  140.1924  164.7922 C.ar    1  UNL1        0.0147
     13 C         138.4850  140.4338  163.4101 C.ar    1  UNL1        0.0028
     14 C         139.5666  139.5536  162.8575 C.ar    1  UNL1        0.0206
     15 C         140.0972  139.7952  161.4754 C.ar    1  UNL1        0.0374
     16 C         141.1789  138.9150  160.9230 C.ar    1  UNL1        0.0031
     17 C         141.7299  137.7933  161.7525 C.ar    1  UNL1        0.0016
     18 C         141.1994  137.5518  163.1345 C.ar    1  UNL1        0.0191
     19 C         140.1177  138.4319  163.6871 C.ar    1  UNL1        0.0810
     20 N         139.5871  138.1904  165.0692 N.ar    1  UNL1       -0.2497
     21 C         141.4025  145.4864  158.8392 C.3     1  UNL1        0.0730
     22 N         141.1931  144.9591  160.2277 N.3     1  UNL1       -0.2720
     23 C         140.2025  145.7108  161.0667 C.3     1  UNL1        0.0768
     24 C         139.7761  145.4388  162.4790 C.3     1  UNL1        0.0434
     25 C         140.2349  144.3483  163.4008 C.ar    1  UNL1       -0.0217
     26 C         139.5542  144.4357  164.7347 C.ar    1  UNL1       -0.0028
     27 C         139.8722  143.4350  165.8060 C.ar    1  UNL1        0.0220
     28 C         140.8707  142.3469  165.5435 C.ar    1  UNL1        0.1184
     29 N         141.3833  141.2270  166.3997 N.ar    1  UNL1       -0.2075
     30 C         142.3807  140.4475  165.5951 C.ar    1  UNL1        0.2679
     31 O         142.4847  141.0855  164.2415 O.2     1  UNL1       -0.4341
     32 C         141.5514  142.2595  164.2096 C.ar    1  UNL1        0.1603
     33 C         141.2335  143.2601  163.1384 C.ar    1  UNL1        0.0114
     34 C         142.0199  142.9939  161.8891 C.3     1  UNL1        0.0465
     35 C         142.0018  143.7501  160.5937 C.3     1  UNL1        0.0769
     36 C         143.1408  139.2416  166.0620 C.3     1  UNL1        0.3303
     37 C         143.9008  138.0356  166.5290 C.3     1  UNL1        0.0822
     38 F         142.1667  139.0638  167.1888 F       1  UNL1       -0.1945
     39 F         144.1149  139.4193  164.9353 F       1  UNL1       -0.1945
@<TRIPOS>BOND
     1    10    11    1
     2    11    12   ar
     3    12    13   ar
     4    13    14   ar
     5    14    15   ar
     6    15     4    1
     7     4     5   ar
     8     5     6   ar
     9     6     7   ar
    10     7     3    1
    11     3     2    1
    12     2     1    1
    13     1    21    1
    14    21    22    1
    15    22    23    1
    16    23    24    1
    17    24    25    1
    18    25    26   ar
    19    26    27   ar
    20    27    28   ar
    21    28    29   ar
    22    29    30   ar
    23    30    36    1
    24    36    37    1
    25    36    38    1
    26    36    39    1
    27    30    31   ar
    28    31    32   ar
    29    32    33   ar
    30    33    34    1
    31    34    35    1
    32     7     8   ar
    33     8     9    1
    34    15    16   ar
    35    16    17   ar
    36    17    18   ar
    37    18    19   ar
    38    19    20   ar
    39    20    11   ar
    40    19    14   ar
    41     8     4   ar
    42    35    22    1
    43    33    25   ar
    44    32    28   ar
@<TRIPOS>MOLECULE
*****
 39 44 0 0 0
SMALL
GASTEIGER

@<TRIPOS>ATOM
      1 C         142.3908  137.8835  159.3731 C.3     1  UNL1        0.0294
      2 C         142.5546  138.6797  158.1124 C.3     1  UNL1        0.0666
      3 S         141.4373  139.5555  157.6279 S.3     1  UNL1       -0.0756
      4 C         138.9349  140.7342  160.3508 C.ar    1  UNL1        0.1669
      5 N         138.0423  139.9039  159.4767 N.ar    1  UNL1       -0.1282
      6 N         138.8711  139.3613  158.3504 N.ar    1  UNL1       -0.1221
      7 C         140.2759  139.8562  158.5283 C.ar    1  UNL1        0.1932
      8 N         140.3153  140.7048  159.7646 N.ar    1  UNL1       -0.2884
      9 C         141.5231  141.4015  160.3176 C.3     1  UNL1        0.1340
     10 C         138.1522  138.5375  166.8170 C.3     1  UNL1        0.0521
     11 C         138.2441  139.2695  165.5109 C.ar    1  UNL1        0.0593
     12 C         138.6591  138.5381  164.2688 C.ar    1  UNL1        0.0147
     13 C         138.7511  139.2702  162.9628 C.ar    1  UNL1        0.0028
     14 C         138.4280  140.7336  162.8989 C.ar    1  UNL1        0.0206
     15 C         138.5199  141.4656  161.5928 C.ar    1  UNL1        0.0374
     16 C         138.1968  142.9290  161.5290 C.ar    1  UNL1        0.0031
     17 C         137.7818  143.6603  162.7711 C.ar    1  UNL1        0.0016
     18 C         137.6899  142.9284  164.0771 C.ar    1  UNL1        0.0191
     19 C         138.0130  141.4650  164.1410 C.ar    1  UNL1        0.0810
     20 N         137.9210  140.7329  165.4471 N.ar    1  UNL1       -0.2497
     21 C         143.5021  137.8352  160.3794 C.3     1  UNL1        0.0730
     22 N         143.5024  138.7825  161.5424 N.3     1  UNL1       -0.2720
     23 C         144.5137  139.8886  161.4805 C.3     1  UNL1        0.0768
     24 C         144.7638  140.9839  162.4745 C.3     1  UNL1        0.0434
     25 C         144.0644  141.2434  163.7758 C.ar    1  UNL1       -0.0217
     26 C         144.6259  142.4496  164.4687 C.ar    1  UNL1       -0.0028
     27 C         144.0651  142.8842  165.7903 C.ar    1  UNL1        0.0220
     28 C         142.9429  142.1127  166.4191 C.ar    1  UNL1        0.1184
     29 N         142.1923  142.3004  167.7041 N.ar    1  UNL1       -0.2075
     30 C         141.1669  141.2103  167.8055 C.ar    1  UNL1        0.2679
     31 O         141.2838  140.3488  166.5831 O.2     1  UNL1       -0.4341
     32 C         142.3814  140.9065  165.7262 C.ar    1  UNL1        0.1603
     33 C         142.9422  140.4719  164.4046 C.ar    1  UNL1        0.0114
     34 C         142.2422  139.2503  163.8873 C.3     1  UNL1        0.0465
     35 C         142.4916  138.4984  162.6135 C.3     1  UNL1        0.0769
     36 C         140.1952  141.0157  168.9315 C.3     1  UNL1        0.3303
     37 C         139.2235  140.8211  170.0575 C.3     1  UNL1        0.0822
     38 F         140.5194  139.5514  168.9582 F       1  UNL1       -0.1945
     39 F         139.8710  142.4800  168.9047 F       1  UNL1       -0.1945
@<TRIPOS>BOND
     1    10    11    1
     2    11    12   ar
     3    12    13   ar
     4    13    14   ar
     5    14    15   ar
     6    15     4    1
     7     4     5   ar
     8     5     6   ar
     9     6     7   ar
    10     7     3    1
    11     3     2    1
    12     2     1    1
    13     1    21    1
    14    21    22    1
    15    22    23    1
    16    23    24    1
    17    24    25    1
    18    25    26   ar
    19    26    27   ar
    20    27    28   ar
    21    28    29   ar
    22    29    30   ar
    23    30    36    1
    24    36    37    1
    25    36    38    1
    26    36    39    1
    27    30    31   ar
    28    31    32   ar
    29    32    33   ar
    30    33    34    1
    31    34    35    1
    32     7     8   ar
    33     8     9    1
    34    15    16   ar
    35    16    17   ar
    36    17    18   ar
    37    18    19   ar
    38    19    20   ar
    39    20    11   ar
    40    19    14   ar
    41     8     4   ar
    42    35    22    1
    43    33    25   ar
    44    32    28   ar
@<TRIPOS>MOLECULE
*****
 39 44 0 0 0
SMALL
GASTEIGER

@<TRIPOS>ATOM
      1 C         139.9585  144.0411  157.7885 C.3     1  UNL1        0.0294
      2 C         140.2192  145.1935  158.7127 C.3     1  UNL1        0.0666
      3 S         141.3878  145.1518  159.6522 S.3     1  UNL1       -0.0756
      4 C         141.7822  142.7593  162.6831 C.ar    1  UNL1        0.1669
      5 N         140.5501  143.5208  163.0733 N.ar    1  UNL1       -0.1282
      6 N         140.2524  144.5096  161.9854 N.ar    1  UNL1       -0.1221
      7 C         141.3005  144.3594  160.9229 C.ar    1  UNL1        0.1932
      8 N         142.2459  143.2776  161.3541 N.ar    1  UNL1       -0.2884
      9 C         143.4447  142.7983  160.5904 C.3     1  UNL1        0.1340
     10 C         140.0926  139.9905  168.7436 C.3     1  UNL1        0.0521
     11 C         140.6783  140.4106  167.4281 C.ar    1  UNL1        0.0593
     12 C         140.0248  141.4992  166.6295 C.ar    1  UNL1        0.0147
     13 C         140.6106  141.9192  165.3140 C.ar    1  UNL1        0.0028
     14 C         141.8499  141.2507  164.7972 C.ar    1  UNL1        0.0206
     15 C         142.4357  141.6708  163.4817 C.ar    1  UNL1        0.0374
     16 C         143.6750  141.0022  162.9650 C.ar    1  UNL1        0.0031
     17 C         144.3286  139.9136  163.7636 C.ar    1  UNL1        0.0016
     18 C         143.7428  139.4935  165.0790 C.ar    1  UNL1        0.0191
     19 C         142.5035  140.1621  165.5958 C.ar    1  UNL1        0.0810
     20 N         141.9177  139.7420  166.9113 N.ar    1  UNL1       -0.2497
     21 C         138.9867  142.9686  158.1826 C.3     1  UNL1        0.0730
     22 N         139.3887  141.9212  159.1783 N.3     1  UNL1       -0.2720
     23 C         140.6195  141.1354  158.8351 C.3     1  UNL1        0.0768
     24 C         141.2724  140.0324  159.6144 C.3     1  UNL1        0.0434
     25 C         140.8557  139.4429  160.9292 C.ar    1  UNL1       -0.0217
     26 C         141.7902  138.3519  161.3613 C.ar    1  UNL1       -0.0028
     27 C         141.5522  137.6287  162.6537 C.ar    1  UNL1        0.0220
     28 C         140.3798  137.9965  163.5141 C.ar    1  UNL1        0.1184
     29 N         139.8941  137.4643  164.8297 N.ar    1  UNL1       -0.2075
     30 C         138.6595  138.2263  165.2107 C.ar    1  UNL1        0.2679
     31 O         138.3822  139.2295  164.1306 O.2     1  UNL1       -0.4341
     32 C         139.4454  139.0875  163.0820 C.ar    1  UNL1        0.1603
     33 C         139.6833  139.8107  161.7896 C.ar    1  UNL1        0.0114
     34 C         138.6380  140.8589  161.5476 C.3     1  UNL1        0.0465
     35 C         138.5070  141.7981  160.3854 C.3     1  UNL1        0.0769
     36 C         137.8452  138.0212  166.4536 C.3     1  UNL1        0.3303
     37 C         137.0309  137.8161  167.6966 C.3     1  UNL1        0.0822
     38 F         137.5917  139.4976  166.5311 F       1  UNL1       -0.1945
     39 F         138.0988  136.5448  166.3761 F       1  UNL1       -0.1945
@<TRIPOS>BOND
     1    10    11    1
     2    11    12   ar
     3    12    13   ar
     4    13    14   ar
     5    14    15   ar
     6    15     4    1
     7     4     5   ar
     8     5     6   ar
     9     6     7   ar
    10     7     3    1
    11     3     2    1
    12     2     1    1
    13     1    21    1
    14    21    22    1
    15    22    23    1
    16    23    24    1
    17    24    25    1
    18    25    26   ar
    19    26    27   ar
    20    27    28   ar
    21    28    29   ar
    22    29    30   ar
    23    30    36    1
    24    36    37    1
    25    36    38    1
    26    36    39    1
    27    30    31   ar
    28    31    32   ar
    29    32    33   ar
    30    33    34    1
    31    34    35    1
    32     7     8   ar
    33     8     9    1
    34    15    16   ar
    35    16    17   ar
    36    17    18   ar
    37    18    19   ar
    38    19    20   ar
    39    20    11   ar
    40    19    14   ar
    41     8     4   ar
    42    35    22    1
    43    33    25   ar
    44    32    28   ar
@<TRIPOS>MOLECULE
*****
 39 44 0 0 0
SMALL
GASTEIGER

@<TRIPOS>ATOM
      1 C         141.3728  144.6904  158.3158 C.3     1  UNL1        0.0294
      2 C         140.0475  144.5590  157.6255 C.3     1  UNL1        0.0666
      3 S         139.2777  143.2750  157.7182 S.3     1  UNL1       -0.0756
      4 C         139.5288  140.9601  160.8237 C.ar    1  UNL1        0.1669
      5 N         138.4913  141.9435  161.2783 N.ar    1  UNL1       -0.1282
      6 N         138.2710  142.9303  160.1703 N.ar    1  UNL1       -0.1221
      7 C         139.1723  142.5568  159.0309 C.ar    1  UNL1        0.1932
      8 N         139.9496  141.3392  159.4347 N.ar    1  UNL1       -0.2884
      9 C         140.9689  140.6258  158.5967 C.3     1  UNL1        0.1340
     10 C         138.0176  138.8073  167.1744 C.3     1  UNL1        0.0521
     11 C         138.5265  139.0558  165.7854 C.ar    1  UNL1        0.0593
     12 C         138.0020  140.2148  164.9906 C.ar    1  UNL1        0.0147
     13 C         138.5109  140.4632  163.6016 C.ar    1  UNL1        0.0028
     14 C         139.5444  139.5527  163.0074 C.ar    1  UNL1        0.0206
     15 C         140.0533  139.8012  161.6184 C.ar    1  UNL1        0.0374
     16 C         141.0867  138.8907  161.0243 C.ar    1  UNL1        0.0031
     17 C         141.6112  137.7317  161.8191 C.ar    1  UNL1        0.0016
     18 C         141.1023  137.4833  163.2080 C.ar    1  UNL1        0.0191
     19 C         140.0689  138.3937  163.8022 C.ar    1  UNL1        0.0810
     20 N         139.5600  138.1452  165.1913 N.ar    1  UNL1       -0.2497
     21 C         141.4327  145.1423  159.7448 C.3     1  UNL1        0.0730
     22 N         141.7513  144.1573  160.8302 N.3     1  UNL1       -0.2720
     23 C         142.7908  143.1299  160.4921 C.3     1  UNL1        0.0768
     24 C         143.3241  142.0214  161.3505 C.3     1  UNL1        0.0434
     25 C         142.9496  141.6664  162.7589 C.ar    1  UNL1       -0.0217
     26 C         143.7258  140.4804  163.2499 C.ar    1  UNL1       -0.0028
     27 C         143.5017  139.9602  164.6389 C.ar    1  UNL1        0.0220
     28 C         142.5015  140.6260  165.5369 C.ar    1  UNL1        0.1184
     29 N         142.0691  140.3395  166.9443 N.ar    1  UNL1       -0.2075
     30 C         141.0257  141.3485  167.3232 C.ar    1  UNL1        0.2679
     31 O         140.8133  142.2586  166.1499 O.2     1  UNL1       -0.4341
     32 C         141.7254  141.8121  165.0459 C.ar    1  UNL1        0.1603
     33 C         141.9495  142.3322  163.6569 C.ar    1  UNL1        0.0114
     34 C         141.0767  143.5175  163.3682 C.3     1  UNL1        0.0465
     35 C         140.9886  144.3297  162.1101 C.3     1  UNL1        0.0769
     36 C         140.3189  141.4326  168.6435 C.3     1  UNL1        0.3303
     37 C         139.6120  141.5168  169.9639 C.3     1  UNL1        0.0822
     38 F         140.1205  142.9059  168.4434 F       1  UNL1       -0.1945
     39 F         140.5173  139.9593  168.8436 F       1  UNL1       -0.1945
@<TRIPOS>BOND
     1    10    11    1
     2    11    12   ar
     3    12    13   ar
     4    13    14   ar
     5    14    15   ar
     6    15     4    1
     7     4     5   ar
     8     5     6   ar
     9     6     7   ar
    10     7     3    1
    11     3     2    1
    12     2     1    1
    13     1    21    1
    14    21    22    1
    15    22    23    1
    16    23    24    1
    17    24    25    1
    18    25    26   ar
    19    26    27   ar
    20    27    28   ar
    21    28    29   ar
    22    29    30   ar
    23    30    36    1
    24    36    37    1
    25    36    38    1
    26    36    39    1
    27    30    31   ar
    28    31    32   ar
    29    32    33   ar
    30    33    34    1
    31    34    35    1
    32     7     8   ar
    33     8     9    1
    34    15    16   ar
    35    16    17   ar
    36    17    18   ar
    37    18    19   ar
    38    19    20   ar
    39    20    11   ar
    40    19    14   ar
    41     8     4   ar
    42    35    22    1
    43    33    25   ar
    44    32    28   ar
@<TRIPOS>MOLECULE
*****
 39 44 0 0 0
SMALL
GASTEIGER

@<TRIPOS>ATOM
      1 C         141.0336  145.0589  159.4523 C.3     1  UNL1        0.0294
      2 C         140.0384  144.7533  158.3722 C.3     1  UNL1        0.0666
      3 S         139.4371  143.3828  158.2723 S.3     1  UNL1       -0.0756
      4 C         139.1444  140.9441  161.2777 C.ar    1  UNL1        0.1669
      5 N         138.0566  141.9271  161.5950 N.ar    1  UNL1       -0.1282
      6 N         138.0339  142.9602  160.5078 N.ar    1  UNL1       -0.1221
      7 C         139.1076  142.6158  159.5185 C.ar    1  UNL1        0.1932
      8 N         139.7938  141.3698  159.9944 N.ar    1  UNL1       -0.2884
      9 C         140.9302  140.6719  159.3075 C.3     1  UNL1        0.1340
     10 C         145.0007  139.3432  164.5012 C.3     1  UNL1        0.0521
     11 C         143.6298  139.4439  163.9008 C.ar    1  UNL1        0.0593
     12 C         143.2570  140.6422  163.0790 C.ar    1  UNL1        0.0147
     13 C         141.8862  140.7428  162.4786 C.ar    1  UNL1        0.0028
     14 C         140.8880  139.6452  162.6998 C.ar    1  UNL1        0.0206
     15 C         139.5171  139.7459  162.0994 C.ar    1  UNL1        0.0374
     16 C         138.5190  138.6482  162.3207 C.ar    1  UNL1        0.0031
     17 C         138.8917  137.4500  163.1424 C.ar    1  UNL1        0.0016
     18 C         140.2625  137.3493  163.7429 C.ar    1  UNL1        0.0191
     19 C         141.2607  138.4469  163.5216 C.ar    1  UNL1        0.0810
     20 N         142.6316  138.3462  164.1221 N.ar    1  UNL1       -0.2497
     21 C         140.5620  145.5418  160.7918 C.3     1  UNL1        0.0730
     22 N         141.0806  144.9013  162.0451 N.3     1  UNL1       -0.2720
     23 C         142.5680  144.9495  162.2331 C.3     1  UNL1        0.0768
     24 C         143.3854  144.4056  163.3672 C.3     1  UNL1        0.0434
     25 C         142.9173  143.6793  164.5932 C.ar    1  UNL1       -0.0217
     26 C         144.0671  143.3056  165.4813 C.ar    1  UNL1       -0.0028
     27 C         143.8157  142.5700  166.7641 C.ar    1  UNL1        0.0220
     28 C         142.4145  142.2082  167.1591 C.ar    1  UNL1        0.1184
     29 N         141.8624  141.4902  168.3547 N.ar    1  UNL1       -0.2075
     30 C         140.3715  141.4201  168.2057 C.ar    1  UNL1        0.2679
     31 O         140.0021  142.0949  166.9179 O.2     1  UNL1       -0.4341
     32 C         141.2648  142.5819  166.2711 C.ar    1  UNL1        0.1603
     33 C         141.5162  143.3175  164.9882 C.ar    1  UNL1        0.0114
     34 C         140.2371  143.5926  164.2545 C.3     1  UNL1        0.0465
     35 C         140.0433  144.2975  162.9447 C.3     1  UNL1        0.0769
     36 C         139.4174  140.7866  169.1743 C.3     1  UNL1        0.3303
     37 C         138.4632  140.1529  170.1430 C.3     1  UNL1        0.0822
     38 F         139.3659  139.5557  168.3185 F       1  UNL1       -0.1945
     39 F         139.4688  142.0174  170.0301 F       1  UNL1       -0.1945
@<TRIPOS>BOND
     1    10    11    1
     2    11    12   ar
     3    12    13   ar
     4    13    14   ar
     5    14    15   ar
     6    15     4    1
     7     4     5   ar
     8     5     6   ar
     9     6     7   ar
    10     7     3    1
    11     3     2    1
    12     2     1    1
    13     1    21    1
    14    21    22    1
    15    22    23    1
    16    23    24    1
    17    24    25    1
    18    25    26   ar
    19    26    27   ar
    20    27    28   ar
    21    28    29   ar
    22    29    30   ar
    23    30    36    1
    24    36    37    1
    25    36    38    1
    26    36    39    1
    27    30    31   ar
    28    31    32   ar
    29    32    33   ar
    30    33    34    1
    31    34    35    1
    32     7     8   ar
    33     8     9    1
    34    15    16   ar
    35    16    17   ar
    36    17    18   ar
    37    18    19   ar
    38    19    20   ar
    39    20    11   ar
    40    19    14   ar
    41     8     4   ar
    42    35    22    1
    43    33    25   ar
    44    32    28   ar
@<TRIPOS>MOLECULE
*****
 39 44 0 0 0
SMALL
GASTEIGER

@<TRIPOS>ATOM
      1 C         142.4839  142.5592  157.2319 C.3     1  UNL1        0.0294
      2 C         141.3894  143.2622  156.4847 C.3     1  UNL1        0.0666
      3 S         140.5677  144.3127  157.1711 S.3     1  UNL1       -0.0756
      4 C         140.1354  144.1072  161.0229 C.ar    1  UNL1        0.1669
      5 N         141.2018  145.1558  160.9064 N.ar    1  UNL1       -0.1282
      6 N         141.4934  145.3603  159.4494 N.ar    1  UNL1       -0.1221
      7 C         140.6074  144.4382  158.6653 C.ar    1  UNL1        0.1932
      8 N         139.7681  143.6638  159.6378 N.ar    1  UNL1       -0.2884
      9 C         138.7417  142.6278  159.2869 C.3     1  UNL1        0.1340
     10 C         143.1053  142.1997  166.9214 C.3     1  UNL1        0.0521
     11 C         142.2142  142.5479  165.7660 C.ar    1  UNL1        0.0593
     12 C         142.8088  143.0626  164.4887 C.ar    1  UNL1        0.0147
     13 C         141.9177  143.4108  163.3335 C.ar    1  UNL1        0.0028
     14 C         140.4319  143.2443  163.4555 C.ar    1  UNL1        0.0206
     15 C         139.5408  143.5925  162.3002 C.ar    1  UNL1        0.0374
     16 C         138.0551  143.4260  162.4223 C.ar    1  UNL1        0.0031
     17 C         137.4605  142.9112  163.6996 C.ar    1  UNL1        0.0016
     18 C         138.3516  142.5631  164.8548 C.ar    1  UNL1        0.0191
     19 C         139.8373  142.7296  164.7328 C.ar    1  UNL1        0.0810
     20 N         140.7284  142.3813  165.8881 N.ar    1  UNL1       -0.2497
     21 C         142.3107  141.1274  157.6440 C.3     1  UNL1        0.0730
     22 N         142.4450  140.7408  159.0871 N.3     1  UNL1       -0.2720
     23 C         143.8482  140.6607  159.6115 C.3     1  UNL1        0.0768
     24 C         144.3113  140.3055  160.9934 C.3     1  UNL1        0.0434
     25 C         143.4857  139.9426  162.1919 C.ar    1  UNL1       -0.0217
     26 C         144.3483  139.6564  163.3852 C.ar    1  UNL1       -0.0028
     27 C         143.7184  139.2729  164.6914 C.ar    1  UNL1        0.0220
     28 C         142.2258  139.1756  164.8043 C.ar    1  UNL1        0.1184
     29 N         141.3269  138.8231  165.9522 N.ar    1  UNL1       -0.2075
     30 C         139.9087  138.8914  165.4684 C.ar    1  UNL1        0.2679
     31 O         139.9311  139.2861  164.0214 O.2     1  UNL1       -0.4341
     32 C         141.3632  139.4617  163.6110 C.ar    1  UNL1        0.1603
     33 C         141.9931  139.8452  162.3048 C.ar    1  UNL1        0.0114
     34 C         140.9575  140.0868  161.2469 C.3     1  UNL1        0.0465
     35 C         141.1587  140.4853  159.8149 C.3     1  UNL1        0.0769
     36 C         138.6833  138.6139  166.2877 C.3     1  UNL1        0.3303
     37 C         137.4578  138.3361  167.1069 C.3     1  UNL1        0.0822
     38 F         138.5701  137.2568  165.6585 F       1  UNL1       -0.1945
     39 F         138.7965  139.9708  166.9168 F       1  UNL1       -0.1945
@<TRIPOS>BOND
     1    10    11    1
     2    11    12   ar
     3    12    13   ar
     4    13    14   ar
     5    14    15   ar
     6    15     4    1
     7     4     5   ar
     8     5     6   ar
     9     6     7   ar
    10     7     3    1
    11     3     2    1
    12     2     1    1
    13     1    21    1
    14    21    22    1
    15    22    23    1
    16    23    24    1
    17    24    25    1
    18    25    26   ar
    19    26    27   ar
    20    27    28   ar
    21    28    29   ar
    22    29    30   ar
    23    30    36    1
    24    36    37    1
    25    36    38    1
    26    36    39    1
    27    30    31   ar
    28    31    32   ar
    29    32    33   ar
    30    33    34    1
    31    34    35    1
    32     7     8   ar
    33     8     9    1
    34    15    16   ar
    35    16    17   ar
    36    17    18   ar
    37    18    19   ar
    38    19    20   ar
    39    20    11   ar
    40    19    14   ar
    41     8     4   ar
    42    35    22    1
    43    33    25   ar
    44    32    28   ar
