@<TRIPOS>MOLECULE
*****
 29 34 0 0 0
SMALL
GASTEIGER

@<TRIPOS>ATOM
      1 N         138.5813  145.2717  165.7975 N.pl3   1  UNL1       -0.3133
      2 C         138.3780  144.0653  164.9297 C.2     1  UNL1        0.2770
      3 N         138.9987  142.7154  165.1368 N.2     1  UNL1       -0.2202
      4 C         138.5228  141.8128  164.0375 C.3     1  UNL1        0.1580
      5 C         137.6079  142.6048  163.1509 C.3     1  UNL1        0.2351
      6 O         137.5185  143.9968  163.7023 O.2     1  UNL1       -0.4478
      7 C         139.4538  141.1514  165.0099 C.ar    1  UNL1        0.0357
      8 C         140.0115  141.9314  166.1633 C.ar    1  UNL1        0.0007
      9 C         140.9426  141.2700  167.1358 C.ar    1  UNL1        0.0029
     10 C         141.3159  139.8284  166.9548 C.ar    1  UNL1        0.0032
     11 C         140.7581  139.0484  165.8013 C.ar    1  UNL1        0.0366
     12 C         139.8271  139.7099  164.8289 C.ar    1  UNL1        0.1360
     13 O         139.2693  138.9299  163.6754 O.3     1  UNL1       -0.4826
     14 C         138.3383  139.5913  162.7030 C.3     1  UNL1        0.1395
     15 C         138.4764  138.1812  162.2104 C.3     1  UNL1        0.0404
     16 C         137.5495  138.4881  161.0717 C.3     1  UNL1        0.0072
     17 C         137.4113  139.8983  161.5642 C.3     1  UNL1        0.0404
     18 C         137.9650  141.0328  162.8840 C.3     1  UNL1        0.1141
     19 C         138.2247  140.8482  163.1553 C.3     1  UNL1        0.1501
     20 O         137.9517  141.0422  162.8701 O.3     1  UNL1       -0.3532
     21 C         138.2247  140.8482  163.1553 C.3     1  UNL1        0.1501
     22 H         139.1679  145.2175  166.5863 H       1  UNL1        0.1466
     23 H         138.1280  146.1177  165.5784 H       1  UNL1        0.1466
     24 C         141.5003  142.0500  168.2892 C.ar    1  UNL1        0.0384
     25 C         140.5994  142.9273  169.1069 C.ar    1  UNL1        0.1022
     26 N         141.1572  143.7074  170.2603 N.ar    1  UNL1       -0.2224
     27 C         142.6158  143.6100  170.5961 C.ar    1  UNL1        0.1989
     28 N         143.5168  142.7327  169.7785 N.ar    1  UNL1       -0.2224
     29 C         142.9591  141.9526  168.6250 C.ar    1  UNL1        0.1022
@<TRIPOS>BOND
     1     1     2    1
     2     2     3    2
     3     3     4    1
     4     4     5    1
     5     5     6    1
     6     4     7    1
     7     7     8   ar
     8     8     9   ar
     9     9    24    1
    10    24    25   ar
    11    25    26   ar
    12    26    27   ar
    13    27    28   ar
    14    28    29   ar
    15     9    10   ar
    16    10    11   ar
    17    11    12   ar
    18    12    13    1
    19    13    14    1
    20    14    15    1
    21    15    16    1
    22    16    17    1
    23    14    18    1
    24    18    19    1
    25    19    20    1
    26    20    21    1
    27     6     2    1
    28    12     7   ar
    29    17    14    1
    30    21    18    1
    31    18     4    1
    32    29    24   ar
    33     1    22    1
    34     1    23    1
@<TRIPOS>MOLECULE
*****
 29 34 0 0 0
SMALL
GASTEIGER

@<TRIPOS>ATOM
      1 N         137.6808  138.3916  166.7435 N.pl3   1  UNL1       -0.3133
      2 C         138.7688  138.3237  165.7131 C.2     1  UNL1        0.2770
      3 N         140.0106  139.1646  165.6853 N.2     1  UNL1       -0.2202
      4 C         140.8152  138.7637  164.4847 C.3     1  UNL1        0.1580
      5 C         140.0707  137.6749  163.7703 C.3     1  UNL1        0.2351
      6 O         138.8059  137.4030  164.5295 O.2     1  UNL1       -0.4478
      7 C         141.4419  139.8535  165.3028 C.ar    1  UNL1        0.0357
      8 C         140.7508  140.3584  166.5347 C.ar    1  UNL1        0.0007
      9 C         141.3775  141.4483  167.3528 C.ar    1  UNL1        0.0029
     10 C         142.6954  142.0334  166.9391 C.ar    1  UNL1        0.0032
     11 C         143.3864  141.5285  165.7072 C.ar    1  UNL1        0.0366
     12 C         142.7597  140.4386  164.8891 C.ar    1  UNL1        0.1360
     13 O         143.4507  139.9337  163.6572 O.3     1  UNL1       -0.4826
     14 C         142.8241  138.8438  162.8390 C.3     1  UNL1        0.1395
     15 C         144.1066  139.1707  162.1330 C.3     1  UNL1        0.0404
     16 C         143.8014  138.1298  161.0968 C.3     1  UNL1        0.0072
     17 C         142.5189  137.8030  161.8028 C.3     1  UNL1        0.0404
     18 C         141.5063  138.2588  163.2528 C.3     1  UNL1        0.1141
     19 C         141.6812  138.5629  163.4810 C.3     1  UNL1        0.1501
     20 O         141.4974  138.2433  163.2411 O.3     1  UNL1       -0.3532
     21 C         141.6812  138.5629  163.4810 C.3     1  UNL1        0.1501
     22 H         137.7470  139.0327  167.4877 H       1  UNL1        0.1466
     23 H         136.9006  137.7950  166.6756 H       1  UNL1        0.1466
     24 C         140.6865  141.9531  168.5847 C.ar    1  UNL1        0.0384
     25 C         139.8037  141.0363  169.3785 C.ar    1  UNL1        0.1022
     26 N         139.1126  141.5412  170.6104 N.ar    1  UNL1       -0.2224
     27 C         139.3043  142.9628  171.0485 C.ar    1  UNL1        0.1989
     28 N         140.1871  143.8798  170.2547 N.ar    1  UNL1       -0.2224
     29 C         140.8782  143.3749  169.0228 C.ar    1  UNL1        0.1022
@<TRIPOS>BOND
     1     1     2    1
     2     2     3    2
     3     3     4    1
     4     4     5    1
     5     5     6    1
     6     4     7    1
     7     7     8   ar
     8     8     9   ar
     9     9    24    1
    10    24    25   ar
    11    25    26   ar
    12    26    27   ar
    13    27    28   ar
    14    28    29   ar
    15     9    10   ar
    16    10    11   ar
    17    11    12   ar
    18    12    13    1
    19    13    14    1
    20    14    15    1
    21    15    16    1
    22    16    17    1
    23    14    18    1
    24    18    19    1
    25    19    20    1
    26    20    21    1
    27     6     2    1
    28    12     7   ar
    29    17    14    1
    30    21    18    1
    31    18     4    1
    32    29    24   ar
    33     1    22    1
    34     1    23    1
@<TRIPOS>MOLECULE
*****
 29 34 0 0 0
SMALL
GASTEIGER

@<TRIPOS>ATOM
      1 N         137.3940  140.5948  163.6641 N.pl3   1  UNL1       -0.3133
      2 C         138.2653  140.4278  164.8736 C.2     1  UNL1        0.2770
      3 N         139.5848  141.1011  165.1095 N.2     1  UNL1       -0.2202
      4 C         140.1051  140.6476  166.4412 C.3     1  UNL1        0.1580
      5 C         139.1071  139.6940  167.0284 C.3     1  UNL1        0.2351
      6 O         137.9701  139.5582  166.0595 O.2     1  UNL1       -0.4478
      7 C         141.0065  141.6134  165.7307 C.ar    1  UNL1        0.0357
      8 C         140.6164  142.1538  164.3870 C.ar    1  UNL1        0.0007
      9 C         141.5177  143.1196  163.6765 C.ar    1  UNL1        0.0029
     10 C         142.8093  143.5450  164.3099 C.ar    1  UNL1        0.0032
     11 C         143.1993  143.0046  165.6537 C.ar    1  UNL1        0.0366
     12 C         142.2979  142.0387  166.3641 C.ar    1  UNL1        0.1360
     13 O         142.6880  141.4983  167.7079 O.3     1  UNL1       -0.4826
     14 C         141.7866  140.5325  168.4183 C.3     1  UNL1        0.1395
     15 C         142.9578  140.7183  169.3371 C.3     1  UNL1        0.0404
     16 C         142.3383  139.7682  170.3188 C.3     1  UNL1        0.0072
     17 C         141.1672  139.5824  169.4000 C.3     1  UNL1        0.0404
     18 C         140.4952  140.1071  167.7849 C.3     1  UNL1        0.1141
     19 C         140.7467  140.3766  167.5868 C.3     1  UNL1        0.1501
     20 O         140.4824  140.0934  167.7951 O.3     1  UNL1       -0.3532
     21 C         140.7467  140.3766  167.5868 C.3     1  UNL1        0.1501
     22 H         137.6752  141.1916  162.9334 H       1  UNL1        0.1466
     23 H         136.5408  140.1076  163.6009 H       1  UNL1        0.1466
     24 C         141.1276  143.6601  162.3328 C.ar    1  UNL1        0.0384
     25 C         139.7060  143.5552  161.8661 C.ar    1  UNL1        0.1022
     26 N         139.3159  144.0956  160.5223 N.ar    1  UNL1       -0.2224
     27 C         140.3474  144.7410  159.6452 C.ar    1  UNL1        0.1989
     28 N         141.7692  144.8459  160.1119 N.ar    1  UNL1       -0.2224
     29 C         142.1593  144.3055  161.4557 C.ar    1  UNL1        0.1022
@<TRIPOS>BOND
     1     1     2    1
     2     2     3    2
     3     3     4    1
     4     4     5    1
     5     5     6    1
     6     4     7    1
     7     7     8   ar
     8     8     9   ar
     9     9    24    1
    10    24    25   ar
    11    25    26   ar
    12    26    27   ar
    13    27    28   ar
    14    28    29   ar
    15     9    10   ar
    16    10    11   ar
    17    11    12   ar
    18    12    13    1
    19    13    14    1
    20    14    15    1
    21    15    16    1
    22    16    17    1
    23    14    18    1
    24    18    19    1
    25    19    20    1
    26    20    21    1
    27     6     2    1
    28    12     7   ar
    29    17    14    1
    30    21    18    1
    31    18     4    1
    32    29    24   ar
    33     1    22    1
    34     1    23    1
@<TRIPOS>MOLECULE
*****
 29 34 0 0 0
SMALL
GASTEIGER

@<TRIPOS>ATOM
      1 N         144.2057  140.4287  162.0362 N.pl3   1  UNL1       -0.3133
      2 C         143.7994  140.2147  163.4642 C.2     1  UNL1        0.2770
      3 N         142.7961  141.0284  164.2269 N.2     1  UNL1       -0.2202
      4 C         142.7016  140.4660  165.6142 C.3     1  UNL1        0.1580
      5 C         143.6465  139.3048  165.7090 C.3     1  UNL1        0.2351
      6 O         144.3249  139.1495  164.3802 O.2     1  UNL1       -0.4478
      7 C         141.8045  141.6432  165.3706 C.ar    1  UNL1        0.0357
      8 C         141.7914  142.3110  164.0275 C.ar    1  UNL1        0.0007
      9 C         140.8943  143.4882  163.7840 C.ar    1  UNL1        0.0029
     10 C         140.0101  143.9976  164.8835 C.ar    1  UNL1        0.0032
     11 C         140.0232  143.3298  166.2266 C.ar    1  UNL1        0.0366
     12 C         140.9204  142.1525  166.4701 C.ar    1  UNL1        0.1360
     13 O         140.9335  141.4847  167.8132 O.3     1  UNL1       -0.4826
     14 C         141.8307  140.3076  168.0568 C.3     1  UNL1        0.1395
     15 C         141.1127  140.5239  169.3560 C.3     1  UNL1        0.0404
     16 C         141.8492  139.3631  169.9562 C.3     1  UNL1        0.0072
     17 C         142.5672  139.1468  168.6570 C.3     1  UNL1        0.0404
     18 C         142.7147  139.7982  166.9573 C.3     1  UNL1        0.1141
     19 C         142.4644  140.1266  166.8893 C.3     1  UNL1        0.1501
     20 O         142.7275  139.7815  166.9607 O.3     1  UNL1       -0.3532
     21 C         142.4644  140.1266  166.8893 C.3     1  UNL1        0.1501
     22 H         143.8021  141.1590  161.5137 H       1  UNL1        0.1466
     23 H         144.8761  139.8390  161.6215 H       1  UNL1        0.1466
     24 C         140.8812  144.1560  162.4409 C.ar    1  UNL1        0.0384
     25 C         139.7102  145.0007  162.0347 C.ar    1  UNL1        0.1022
     26 N         139.6971  145.6685  160.6916 N.ar    1  UNL1       -0.2224
     27 C         140.8550  145.4916  159.7547 C.ar    1  UNL1        0.1989
     28 N         142.0261  144.6468  160.1609 N.ar    1  UNL1       -0.2224
     29 C         142.0392  143.9790  161.5040 C.ar    1  UNL1        0.1022
@<TRIPOS>BOND
     1     1     2    1
     2     2     3    2
     3     3     4    1
     4     4     5    1
     5     5     6    1
     6     4     7    1
     7     7     8   ar
     8     8     9   ar
     9     9    24    1
    10    24    25   ar
    11    25    26   ar
    12    26    27   ar
    13    27    28   ar
    14    28    29   ar
    15     9    10   ar
    16    10    11   ar
    17    11    12   ar
    18    12    13    1
    19    13    14    1
    20    14    15    1
    21    15    16    1
    22    16    17    1
    23    14    18    1
    24    18    19    1
    25    19    20    1
    26    20    21    1
    27     6     2    1
    28    12     7   ar
    29    17    14    1
    30    21    18    1
    31    18     4    1
    32    29    24   ar
    33     1    22    1
    34     1    23    1
@<TRIPOS>MOLECULE
*****
 29 34 0 0 0
SMALL
GASTEIGER

@<TRIPOS>ATOM
      1 N         138.2280  139.5599  169.2248 N.pl3   1  UNL1       -0.3133
      2 C         138.3730  139.2733  167.7596 C.2     1  UNL1        0.2770
      3 N         139.4378  139.8199  166.8554 N.2     1  UNL1       -0.2202
      4 C         139.2016  139.2743  165.4783 C.3     1  UNL1        0.1580
      5 C         137.9907  138.3904  165.5314 C.3     1  UNL1        0.2351
      6 O         137.4786  138.3899  166.9413 O.2     1  UNL1       -0.4478
      7 C         140.3906  140.1831  165.5787 C.ar    1  UNL1        0.0357
      8 C         140.7506  140.8044  166.8957 C.ar    1  UNL1        0.0007
      9 C         141.9397  141.7133  166.9961 C.ar    1  UNL1        0.0029
     10 C         142.7687  142.0010  165.7795 C.ar    1  UNL1        0.0032
     11 C         142.4087  141.3797  164.4625 C.ar    1  UNL1        0.0366
     12 C         141.2196  140.4707  164.3622 C.ar    1  UNL1        0.1360
     13 O         140.8596  139.8494  163.0452 O.3     1  UNL1       -0.4826
     14 C         139.6705  138.9406  162.9448 C.3     1  UNL1        0.1395
     15 C         140.2399  138.9897  161.5579 C.3     1  UNL1        0.0404
     16 C         139.1614  138.0619  161.0823 C.3     1  UNL1        0.0072
     17 C         138.5921  138.0127  162.4692 C.3     1  UNL1        0.0404
     18 C         138.8416  138.6530  164.1614 C.3     1  UNL1        0.1141
     19 C         139.1733  138.9065  164.1893 C.3     1  UNL1        0.1501
     20 O         138.8246  138.6400  164.1599 O.3     1  UNL1       -0.3532
     21 C         139.1733  138.9065  164.1893 C.3     1  UNL1        0.1501
     22 H         138.8687  140.1563  169.6754 H       1  UNL1        0.1466
     23 H         137.4922  139.1516  169.7357 H       1  UNL1        0.1466
     24 C         142.2997  142.3346  168.3131 C.ar    1  UNL1        0.0384
     25 C         141.2347  142.9634  169.1618 C.ar    1  UNL1        0.1022
     26 N         141.5947  143.5847  170.4788 N.ar    1  UNL1       -0.2224
     27 C         143.0197  143.5772  170.9470 C.ar    1  UNL1        0.1989
     28 N         144.0848  142.9484  170.0982 N.ar    1  UNL1       -0.2224
     29 C         143.7248  142.3271  168.7812 C.ar    1  UNL1        0.1022
@<TRIPOS>BOND
     1     1     2    1
     2     2     3    2
     3     3     4    1
     4     4     5    1
     5     5     6    1
     6     4     7    1
     7     7     8   ar
     8     8     9   ar
     9     9    24    1
    10    24    25   ar
    11    25    26   ar
    12    26    27   ar
    13    27    28   ar
    14    28    29   ar
    15     9    10   ar
    16    10    11   ar
    17    11    12   ar
    18    12    13    1
    19    13    14    1
    20    14    15    1
    21    15    16    1
    22    16    17    1
    23    14    18    1
    24    18    19    1
    25    19    20    1
    26    20    21    1
    27     6     2    1
    28    12     7   ar
    29    17    14    1
    30    21    18    1
    31    18     4    1
    32    29    24   ar
    33     1    22    1
    34     1    23    1
@<TRIPOS>MOLECULE
*****
 29 34 0 0 0
SMALL
GASTEIGER

@<TRIPOS>ATOM
      1 N         142.6411  142.4626  163.1548 N.pl3   1  UNL1       -0.3133
      2 C         142.6148  142.2008  164.6316 C.2     1  UNL1        0.2770
      3 N         141.5579  141.4367  165.3729 N.2     1  UNL1       -0.2202
      4 C         141.9306  141.4208  166.8257 C.3     1  UNL1        0.1580
      5 C         143.2178  142.1750  166.9823 C.3     1  UNL1        0.2351
      6 O         143.6406  142.6571  165.6263 O.2     1  UNL1       -0.4478
      7 C         140.6533  140.6981  166.5155 C.ar    1  UNL1        0.0357
      8 C         140.1539  140.6305  165.1027 C.ar    1  UNL1        0.0007
      9 C         138.8766  139.9079  164.7925 C.ar    1  UNL1        0.0029
     10 C         138.0987  139.2527  165.8952 C.ar    1  UNL1        0.0032
     11 C         138.5981  139.3203  167.3080 C.ar    1  UNL1        0.0366
     12 C         139.8755  140.0431  167.6181 C.ar    1  UNL1        0.1360
     13 O         140.3749  140.1107  169.0309 O.3     1  UNL1       -0.4826
     14 C         141.6522  140.8333  169.3411 C.3     1  UNL1        0.1395
     15 C         141.1663  140.3186  170.6637 C.3     1  UNL1        0.0404
     16 C         142.3586  140.9289  171.3392 C.3     1  UNL1        0.0072
     17 C         142.8444  141.4436  170.0166 C.3     1  UNL1        0.0404
     18 C         142.4300  141.4884  168.2385 C.3     1  UNL1        0.1141
     19 C         142.0737  141.2868  168.1520 C.3     1  UNL1        0.1501
     20 O         142.4482  141.4987  168.2429 O.3     1  UNL1       -0.3532
     21 C         142.0737  141.2868  168.1520 C.3     1  UNL1        0.1501
     22 H         141.9182  142.1198  162.5812 H       1  UNL1        0.1466
     23 H         143.3814  142.9772  162.7593 H       1  UNL1        0.1466
     24 C         138.3771  139.8402  163.3797 C.ar    1  UNL1        0.0384
     25 C         137.8735  141.0801  162.7022 C.ar    1  UNL1        0.1022
     26 N         137.3741  141.0125  161.2894 N.ar    1  UNL1       -0.2224
     27 C         137.3783  139.7050  160.5542 C.ar    1  UNL1        0.1989
     28 N         137.8819  138.4651  161.2317 N.ar    1  UNL1       -0.2224
     29 C         138.3814  138.5327  162.6445 C.ar    1  UNL1        0.1022
@<TRIPOS>BOND
     1     1     2    1
     2     2     3    2
     3     3     4    1
     4     4     5    1
     5     5     6    1
     6     4     7    1
     7     7     8   ar
     8     8     9   ar
     9     9    24    1
    10    24    25   ar
    11    25    26   ar
    12    26    27   ar
    13    27    28   ar
    14    28    29   ar
    15     9    10   ar
    16    10    11   ar
    17    11    12   ar
    18    12    13    1
    19    13    14    1
    20    14    15    1
    21    15    16    1
    22    16    17    1
    23    14    18    1
    24    18    19    1
    25    19    20    1
    26    20    21    1
    27     6     2    1
    28    12     7   ar
    29    17    14    1
    30    21    18    1
    31    18     4    1
    32    29    24   ar
    33     1    22    1
    34     1    23    1
@<TRIPOS>MOLECULE
*****
 29 34 0 0 0
SMALL
GASTEIGER

@<TRIPOS>ATOM
      1 N         138.8616  137.6670  164.1326 N.pl3   1  UNL1       -0.3133
      2 C         139.0497  138.5025  165.3640 C.2     1  UNL1        0.2770
      3 N         140.1852  139.4479  165.6232 N.2     1  UNL1       -0.2202
      4 C         139.9727  140.0690  166.9718 C.3     1  UNL1        0.1580
      5 C         138.7059  139.5074  167.5463 C.3     1  UNL1        0.2351
      6 O         138.1355  138.5393  166.5526 O.2     1  UNL1       -0.4478
      7 C         141.2129  140.5400  166.2718 C.ar    1  UNL1        0.0357
      8 C         141.5562  140.0051  164.9131 C.ar    1  UNL1        0.0007
      9 C         142.7964  140.4762  164.2130 C.ar    1  UNL1        0.0029
     10 C         143.6932  141.4822  164.8717 C.ar    1  UNL1        0.0032
     11 C         143.3499  142.0170  166.2303 C.ar    1  UNL1        0.0366
     12 C         142.1096  141.5459  166.9304 C.ar    1  UNL1        0.1360
     13 O         141.7663  142.0808  168.2891 O.3     1  UNL1       -0.4826
     14 C         140.5261  141.6098  168.9891 C.3     1  UNL1        0.1395
     15 C         141.1558  142.5910  169.9330 C.3     1  UNL1        0.0404
     16 C         140.0405  142.3662  170.9106 C.3     1  UNL1        0.0072
     17 C         139.4109  141.3850  169.9668 C.3     1  UNL1        0.0404
     18 C         139.6294  140.6038  168.3305 C.3     1  UNL1        0.1141
     19 C         139.9753  140.7353  168.1352 C.3     1  UNL1        0.1501
     20 O         139.6117  140.5971  168.3405 O.3     1  UNL1       -0.3532
     21 C         139.9753  140.7353  168.1352 C.3     1  UNL1        0.1501
     22 H         139.5199  137.7120  163.4019 H       1  UNL1        0.1466
     23 H         138.0798  137.0737  164.0550 H       1  UNL1        0.1466
     24 C         143.1397  139.9413  162.8544 C.ar    1  UNL1        0.0384
     25 C         143.2386  138.4609  162.6342 C.ar    1  UNL1        0.1022
     26 N         143.5820  137.9260  161.2755 N.ar    1  UNL1       -0.2224
     27 C         143.8265  138.8715  160.1370 C.ar    1  UNL1        0.1989
     28 N         143.7276  140.3520  160.3572 N.ar    1  UNL1       -0.2224
     29 C         143.3842  140.8869  161.7159 C.ar    1  UNL1        0.1022
@<TRIPOS>BOND
     1     1     2    1
     2     2     3    2
     3     3     4    1
     4     4     5    1
     5     5     6    1
     6     4     7    1
     7     7     8   ar
     8     8     9   ar
     9     9    24    1
    10    24    25   ar
    11    25    26   ar
    12    26    27   ar
    13    27    28   ar
    14    28    29   ar
    15     9    10   ar
    16    10    11   ar
    17    11    12   ar
    18    12    13    1
    19    13    14    1
    20    14    15    1
    21    15    16    1
    22    16    17    1
    23    14    18    1
    24    18    19    1
    25    19    20    1
    26    20    21    1
    27     6     2    1
    28    12     7   ar
    29    17    14    1
    30    21    18    1
    31    18     4    1
    32    29    24   ar
    33     1    22    1
    34     1    23    1
@<TRIPOS>MOLECULE
*****
 29 34 0 0 0
SMALL
GASTEIGER

@<TRIPOS>ATOM
      1 N         138.4750  145.2663  165.8417 N.pl3   1  UNL1       -0.3133
      2 C         138.4205  144.3180  164.6808 C.2     1  UNL1        0.2770
      3 N         138.7839  142.8629  164.7132 N.2     1  UNL1       -0.2202
      4 C         138.5811  142.3038  163.3362 C.3     1  UNL1        0.1580
      5 C         138.0923  143.4133  162.4528 C.3     1  UNL1        0.2351
      6 O         137.9931  144.6581  163.2839 O.2     1  UNL1       -0.4478
      7 C         139.0729  141.2997  164.3361 C.ar    1  UNL1        0.0357
      8 C         139.3214  141.7148  165.7559 C.ar    1  UNL1        0.0007
      9 C         139.8132  140.7107  166.7558 C.ar    1  UNL1        0.0029
     10 C         140.0564  139.2913  166.3359 C.ar    1  UNL1        0.0032
     11 C         139.8079  138.8761  164.9161 C.ar    1  UNL1        0.0366
     12 C         139.3161  139.8804  163.9162 C.ar    1  UNL1        0.1360
     13 O         139.0675  139.4652  162.4963 O.3     1  UNL1       -0.4826
     14 C         138.5758  140.4694  161.4965 C.3     1  UNL1        0.1395
     15 C         138.7001  139.1864  160.7292 C.3     1  UNL1        0.0404
     16 C         138.2243  139.8822  159.4885 C.3     1  UNL1        0.0072
     17 C         138.1000  141.1652  160.2557 C.3     1  UNL1        0.0404
     18 C         138.3326  141.8887  161.9164 C.3     1  UNL1        0.1141
     19 C         138.4698  141.6085  162.1953 C.3     1  UNL1        0.1501
     20 O         138.3256  141.9030  161.9021 O.3     1  UNL1       -0.3532
     21 C         138.4698  141.6085  162.1953 C.3     1  UNL1        0.1501
     22 H         138.7707  144.9470  166.7248 H       1  UNL1        0.1466
     23 H         138.2151  146.2081  165.7205 H       1  UNL1        0.1466
     24 C         140.0617  141.1258  168.1756 C.ar    1  UNL1        0.0384
     25 C         140.7811  142.4095  168.4667 C.ar    1  UNL1        0.1022
     26 N         141.0296  142.8246  169.8865 N.ar    1  UNL1       -0.2224
     27 C         140.5588  141.9561  171.0152 C.ar    1  UNL1        0.1989
     28 N         139.8395  140.6724  170.7242 N.ar    1  UNL1       -0.2224
     29 C         139.5909  140.2572  169.3043 C.ar    1  UNL1        0.1022
@<TRIPOS>BOND
     1     1     2    1
     2     2     3    2
     3     3     4    1
     4     4     5    1
     5     5     6    1
     6     4     7    1
     7     7     8   ar
     8     8     9   ar
     9     9    24    1
    10    24    25   ar
    11    25    26   ar
    12    26    27   ar
    13    27    28   ar
    14    28    29   ar
    15     9    10   ar
    16    10    11   ar
    17    11    12   ar
    18    12    13    1
    19    13    14    1
    20    14    15    1
    21    15    16    1
    22    16    17    1
    23    14    18    1
    24    18    19    1
    25    19    20    1
    26    20    21    1
    27     6     2    1
    28    12     7   ar
    29    17    14    1
    30    21    18    1
    31    18     4    1
    32    29    24   ar
    33     1    22    1
    34     1    23    1
@<TRIPOS>MOLECULE
*****
 29 34 0 0 0
SMALL
GASTEIGER

@<TRIPOS>ATOM
      1 N         137.9989  139.6232  162.6208 N.pl3   1  UNL1       -0.3133
      2 C         138.6204  139.7084  163.9833 C.2     1  UNL1        0.2770
      3 N         140.0848  139.6069  164.2924 N.2     1  UNL1       -0.2202
      4 C         140.2560  139.7458  165.7761 C.3     1  UNL1        0.1580
      5 C         138.8975  139.9331  166.3840 C.3     1  UNL1        0.2351
      6 O         137.8867  139.9100  165.2760 O.2     1  UNL1       -0.4478
      7 C         141.5420  139.5506  165.0291 C.ar    1  UNL1        0.0357
      8 C         141.5268  139.3966  163.5371 C.ar    1  UNL1        0.0007
      9 C         142.8128  139.2014  162.7901 C.ar    1  UNL1        0.0029
     10 C         144.1141  139.1602  163.5350 C.ar    1  UNL1        0.0032
     11 C         144.1294  139.3143  165.0270 C.ar    1  UNL1        0.0366
     12 C         142.8433  139.5095  165.7740 C.ar    1  UNL1        0.1360
     13 O         142.8585  139.6635  167.2660 O.3     1  UNL1       -0.4826
     14 C         141.5725  139.8587  168.0130 C.3     1  UNL1        0.1395
     15 C         142.6396  139.8711  169.0673 C.3     1  UNL1        0.0404
     16 C         141.5940  140.0765  170.1231 C.3     1  UNL1        0.0072
     17 C         140.5270  140.0641  169.0689 C.3     1  UNL1        0.0404
     18 C         140.2713  139.8998  167.2680 C.3     1  UNL1        0.1141
     19 C         140.6300  139.8454  167.0597 C.3     1  UNL1        0.1501
     20 O         140.2530  139.9026  167.2787 O.3     1  UNL1       -0.3532
     21 C         140.6300  139.8454  167.0597 C.3     1  UNL1        0.1501
     22 H         138.5671  139.4888  161.8281 H       1  UNL1        0.1466
     23 H         137.0228  139.7017  162.5192 H       1  UNL1        0.1466
     24 C         142.7976  139.0474  161.2981 C.ar    1  UNL1        0.0384
     25 C         141.5994  138.4549  160.6174 C.ar    1  UNL1        0.1022
     26 N         141.5842  138.3009  159.1254 N.ar    1  UNL1       -0.2224
     27 C         142.7671  138.7393  158.3141 C.ar    1  UNL1        0.1989
     28 N         143.9654  139.3319  158.9947 N.ar    1  UNL1       -0.2224
     29 C         143.9806  139.4859  160.4867 C.ar    1  UNL1        0.1022
@<TRIPOS>BOND
     1     1     2    1
     2     2     3    2
     3     3     4    1
     4     4     5    1
     5     5     6    1
     6     4     7    1
     7     7     8   ar
     8     8     9   ar
     9     9    24    1
    10    24    25   ar
    11    25    26   ar
    12    26    27   ar
    13    27    28   ar
    14    28    29   ar
    15     9    10   ar
    16    10    11   ar
    17    11    12   ar
    18    12    13    1
    19    13    14    1
    20    14    15    1
    21    15    16    1
    22    16    17    1
    23    14    18    1
    24    18    19    1
    25    19    20    1
    26    20    21    1
    27     6     2    1
    28    12     7   ar
    29    17    14    1
    30    21    18    1
    31    18     4    1
    32    29    24   ar
    33     1    22    1
    34     1    23    1
