@<TRIPOS>MOLECULE
*****
 33 36 0 0 0
SMALL
GASTEIGER

@<TRIPOS>ATOM
      1 N         138.2380  140.1107  161.5802 N.pl3   1  UNL1       -0.2825
      2 H         137.2944  139.8454  161.4880 H       1  UNL1        0.1551
      3 C         141.1161  144.5624  161.0116 C.ar    1  UNL1        0.1554
      4 N         141.3072  145.4157  159.7928 N.ar    1  UNL1       -0.1646
      5 N         140.5218  144.8038  158.6709 N.ar    1  UNL1       -0.2487
      6 C         140.4291  145.3309  157.2696 C.3     1  UNL1        0.1537
      7 C         139.8452  143.5724  159.1963 C.ar    1  UNL1        0.0796
      8 C         138.9422  142.5678  158.5442 C.ar    1  UNL1        0.0201
      9 C         138.4065  141.4139  159.3389 C.ar    1  UNL1        0.0162
     10 C         138.7738  141.2647  160.7856 C.ar    1  UNL1        0.0506
     11 C         139.6768  142.2693  161.4376 C.ar    1  UNL1        0.0179
     12 C         140.2125  143.4232  160.6429 C.ar    1  UNL1        0.0423
     13 C         143.8177  145.1471  163.8594 C.3     1  UNL1        0.1110
     14 N         143.2117  144.9039  162.5089 N.am    1  UNL1       -0.2979
     15 C         141.7221  144.8056  162.3620 C.2     1  UNL1        0.2654
     16 O         140.8387  144.9504  163.5655 O.2     1  UNL1       -0.2684
     17 H         143.7916  144.8089  161.7190 H       1  UNL1        0.1498
     18 C         139.1399  139.3610  162.5153 C.ar    1  UNL1        0.2207
     19 N         139.9177  138.1780  162.0198 N.ar    1  UNL1       -0.2120
     20 C         140.8197  137.4283  162.9550 C.ar    1  UNL1        0.1034
     21 C         140.9437  137.8616  164.3856 C.ar    1  UNL1        0.0415
     22 C         140.1659  139.0445  164.8812 C.ar    1  UNL1        0.1050
     23 N         139.2640  139.7942  163.9461 N.ar    1  UNL1       -0.2120
     24 C         140.2899  139.4778  166.3119 C.ar    1  UNL1        0.1198
     25 C         141.5679  139.8019  167.0273 C.ar    1  UNL1        0.0381
     26 C         141.2256  140.1874  168.4359 C.ar    1  UNL1        0.0734
     27 N         139.7360  140.1016  168.5910 N.ar    1  UNL1       -0.2515
     28 C         138.9609  140.4016  169.8397 C.3     1  UNL1        0.1534
     29 N         139.1578  139.6630  167.2783 N.ar    1  UNL1       -0.1680
     30 C         142.2014  140.5883  169.5022 C.3     1  UNL1        0.1184
     31 N         142.5632  142.0328  169.6831 N.3     1  UNL1       -0.2652
     32 C         141.4844  143.0720  169.7613 C.3     1  UNL1        0.0900
     33 C         144.0038  142.4380  169.7857 C.3     1  UNL1        0.0900
@<TRIPOS>BOND
     1    13    14    1
     2    14    15   am
     3    15    16    2
     4    15     3    1
     5     3     4   ar
     6     4     5   ar
     7     5     6    1
     8     5     7   ar
     9     7     8   ar
    10     8     9   ar
    11     9    10   ar
    12    10     1    1
    13     1    18    1
    14    18    19   ar
    15    19    20   ar
    16    20    21   ar
    17    21    22   ar
    18    22    24    1
    19    24    25   ar
    20    25    26   ar
    21    26    30    1
    22    30    31    1
    23    31    32    1
    24    31    33    1
    25    26    27   ar
    26    27    28    1
    27    27    29   ar
    28    22    23   ar
    29    10    11   ar
    30    11    12   ar
    31    12     3   ar
    32    12     7   ar
    33    23    18   ar
    34    29    24   ar
    35    14    17    1
    36     1     2    1
@<TRIPOS>MOLECULE
*****
 33 36 0 0 0
SMALL
GASTEIGER

@<TRIPOS>ATOM
      1 N         140.5877  145.8429  161.3744 N.pl3   1  UNL1       -0.2825
      2 H         140.6028  146.8272  161.3746 H       1  UNL1        0.1551
      3 C         144.1192  142.1299  159.9025 C.ar    1  UNL1        0.1554
      4 N         144.5857  141.7617  158.5252 N.ar    1  UNL1       -0.1646
      5 N         143.8728  142.6435  157.5433 N.ar    1  UNL1       -0.2487
      6 C         144.0379  142.6169  156.0527 C.3     1  UNL1        0.1537
      7 C         142.9657  143.5566  158.3137 C.ar    1  UNL1        0.0796
      8 C         142.0208  144.6361  157.8758 C.ar    1  UNL1        0.0201
      9 C         141.2282  145.3982  158.8961 C.ar    1  UNL1        0.0162
     10 C         141.3804  145.0807  160.3542 C.ar    1  UNL1        0.0506
     11 C         142.3254  144.0012  160.7920 C.ar    1  UNL1        0.0179
     12 C         143.1180  143.2392  159.7717 C.ar    1  UNL1        0.0423
     13 C         145.7610  141.6891  163.4887 C.3     1  UNL1        0.1110
     14 N         145.3062  142.3196  162.2058 N.am    1  UNL1       -0.2979
     15 C         144.5740  141.4994  161.1853 C.2     1  UNL1        0.2654
     16 O         144.2967  140.0489  161.4478 O.2     1  UNL1       -0.2684
     17 H         145.4882  143.2717  162.0336 H       1  UNL1        0.1498
     18 C         139.7721  145.1052  162.3944 C.ar    1  UNL1        0.2207
     19 N         138.2904  144.9627  162.2095 N.ar    1  UNL1       -0.2120
     20 C         137.4747  144.2250  163.2296 C.ar    1  UNL1        0.1034
     21 C         138.1408  143.6297  164.4346 C.ar    1  UNL1        0.0415
     22 C         139.6225  143.7721  164.6195 C.ar    1  UNL1        0.1050
     23 N         140.4382  144.5098  163.5995 N.ar    1  UNL1       -0.2120
     24 C         140.2886  143.1769  165.8244 C.ar    1  UNL1        0.1198
     25 C         139.9007  143.4144  167.2538 C.ar    1  UNL1        0.0381
     26 C         140.8319  142.6239  168.1244 C.ar    1  UNL1        0.0734
     27 N         141.7954  141.8978  167.2330 N.ar    1  UNL1       -0.2515
     28 C         142.9007  140.9894  167.6839 C.3     1  UNL1        0.1534
     29 N         141.4596  142.2396  165.8116 N.ar    1  UNL1       -0.1680
     30 C         140.8045  142.5691  169.6231 C.3     1  UNL1        0.1184
     31 N         140.6508  141.2511  170.3227 N.3     1  UNL1       -0.2652
     32 C         141.7188  140.7706  171.2600 C.3     1  UNL1        0.0900
     33 C         139.4292  140.4137  170.0850 C.3     1  UNL1        0.0900
@<TRIPOS>BOND
     1    13    14    1
     2    14    15   am
     3    15    16    2
     4    15     3    1
     5     3     4   ar
     6     4     5   ar
     7     5     6    1
     8     5     7   ar
     9     7     8   ar
    10     8     9   ar
    11     9    10   ar
    12    10     1    1
    13     1    18    1
    14    18    19   ar
    15    19    20   ar
    16    20    21   ar
    17    21    22   ar
    18    22    24    1
    19    24    25   ar
    20    25    26   ar
    21    26    30    1
    22    30    31    1
    23    31    32    1
    24    31    33    1
    25    26    27   ar
    26    27    28    1
    27    27    29   ar
    28    22    23   ar
    29    10    11   ar
    30    11    12   ar
    31    12     3   ar
    32    12     7   ar
    33    23    18   ar
    34    29    24   ar
    35    14    17    1
    36     1     2    1
@<TRIPOS>MOLECULE
*****
 33 36 0 0 0
SMALL
GASTEIGER

@<TRIPOS>ATOM
      1 N         142.6061  137.9094  162.0473 N.pl3   1  UNL1       -0.2825
      2 H         143.2309  137.1556  162.1503 H       1  UNL1        0.1551
      3 C         143.0840  142.9725  160.4472 C.ar    1  UNL1        0.1554
      4 N         143.4164  143.5066  159.0855 N.ar    1  UNL1       -0.1646
      5 N         143.6110  142.3387  158.1645 N.ar    1  UNL1       -0.2487
      6 C         143.9570  142.4135  156.7068 C.3     1  UNL1        0.1537
      7 C         143.3990  141.0829  158.9570 C.ar    1  UNL1        0.0796
      8 C         143.4604  139.6334  158.5763 C.ar    1  UNL1        0.0201
      9 C         143.1961  138.5756  159.6064 C.ar    1  UNL1        0.0162
     10 C         142.8704  138.9673  161.0172 C.ar    1  UNL1        0.0506
     11 C         142.8090  140.4169  161.3979 C.ar    1  UNL1        0.0179
     12 C         143.0733  141.4747  160.3678 C.ar    1  UNL1        0.0423
     13 C         143.6755  145.2131  163.6691 C.3     1  UNL1        0.1110
     14 N         143.9491  144.3932  162.4431 N.am    1  UNL1       -0.2979
     15 C         142.8105  143.7924  161.6732 C.2     1  UNL1        0.2654
     16 O         141.3985  144.0116  162.1292 O.2     1  UNL1       -0.2684
     17 H         144.8759  144.2494  162.1438 H       1  UNL1        0.1498
     18 C         141.3898  138.0001  162.9205 C.ar    1  UNL1        0.2207
     19 N         140.0643  137.5151  162.4128 N.ar    1  UNL1       -0.2120
     20 C         138.8480  137.6057  163.2860 C.ar    1  UNL1        0.1034
     21 C         138.9572  138.1813  164.6668 C.ar    1  UNL1        0.0415
     22 C         140.2828  138.6663  165.1745 C.ar    1  UNL1        0.1050
     23 N         141.4990  138.5757  164.3014 N.ar    1  UNL1       -0.2120
     24 C         140.3920  139.2419  166.5553 C.ar    1  UNL1        0.1198
     25 C         141.6647  139.6078  167.2599 C.ar    1  UNL1        0.0381
     26 C         141.3071  140.1447  168.6140 C.ar    1  UNL1        0.0734
     27 N         139.8132  140.1107  168.7464 N.ar    1  UNL1       -0.2515
     28 C         139.0236  140.5564  169.9413 C.3     1  UNL1        0.1534
     29 N         139.2478  139.5528  167.4740 N.ar    1  UNL1       -0.1680
     30 C         142.2734  140.6304  169.6533 C.3     1  UNL1        0.1184
     31 N         142.6292  142.0858  169.7249 N.3     1  UNL1       -0.2652
     32 C         144.0631  142.5011  169.8719 C.3     1  UNL1        0.0900
     33 C         141.5511  143.1261  169.6493 C.3     1  UNL1        0.0900
@<TRIPOS>BOND
     1    13    14    1
     2    14    15   am
     3    15    16    2
     4    15     3    1
     5     3     4   ar
     6     4     5   ar
     7     5     6    1
     8     5     7   ar
     9     7     8   ar
    10     8     9   ar
    11     9    10   ar
    12    10     1    1
    13     1    18    1
    14    18    19   ar
    15    19    20   ar
    16    20    21   ar
    17    21    22   ar
    18    22    24    1
    19    24    25   ar
    20    25    26   ar
    21    26    30    1
    22    30    31    1
    23    31    32    1
    24    31    33    1
    25    26    27   ar
    26    27    28    1
    27    27    29   ar
    28    22    23   ar
    29    10    11   ar
    30    11    12   ar
    31    12     3   ar
    32    12     7   ar
    33    23    18   ar
    34    29    24   ar
    35    14    17    1
    36     1     2    1
@<TRIPOS>MOLECULE
*****
 33 36 0 0 0
SMALL
GASTEIGER

@<TRIPOS>ATOM
      1 N         138.8522  137.7746  163.6024 N.pl3   1  UNL1       -0.2825
      2 H         138.7850  136.7924  163.5924 H       1  UNL1        0.1551
      3 C         141.7244  140.9287  166.8002 C.ar    1  UNL1        0.1554
      4 N         141.4337  141.3680  168.2046 N.ar    1  UNL1       -0.1646
      5 N         140.1292  140.7558  168.6211 N.ar    1  UNL1       -0.2487
      6 C         139.4579  140.9305  169.9511 C.3     1  UNL1        0.1537
      7 C         139.6137  139.9381  167.4740 C.ar    1  UNL1        0.0796
      8 C         138.3739  139.1101  167.3089 C.ar    1  UNL1        0.0201
      9 C         138.1201  138.3889  166.0184 C.ar    1  UNL1        0.0162
     10 C         139.1061  138.4958  164.8930 C.ar    1  UNL1        0.0506
     11 C         140.3458  139.3238  165.0581 C.ar    1  UNL1        0.0179
     12 C         140.5996  140.0450  166.3486 C.ar    1  UNL1        0.0423
     13 C         144.5243  143.1266  165.0452 C.3     1  UNL1        0.1110
     14 N         143.3202  142.7486  165.8558 N.am    1  UNL1       -0.2979
     15 C         142.9286  141.3067  165.9896 C.2     1  UNL1        0.2654
     16 O         143.7412  140.2431  165.3127 O.2     1  UNL1       -0.2684
     17 H         142.7868  143.4468  166.3000 H       1  UNL1        0.1498
     18 C         138.7007  138.5498  162.3273 C.ar    1  UNL1        0.2207
     19 N         137.8529  139.7869  162.2979 N.ar    1  UNL1       -0.2120
     20 C         137.7014  140.5621  161.0226 C.ar    1  UNL1        0.1034
     21 C         138.3976  140.1002  159.7769 C.ar    1  UNL1        0.0415
     22 C         139.2454  138.8631  159.8063 C.ar    1  UNL1        0.1050
     23 N         139.3969  138.0879  161.0815 N.ar    1  UNL1       -0.2120
     24 C         139.9417  138.4012  158.5606 C.ar    1  UNL1        0.1198
     25 C         141.3813  137.9936  158.4548 C.ar    1  UNL1        0.0381
     26 C         141.6500  137.6063  157.0308 C.ar    1  UNL1        0.0734
     27 N         140.3762  137.7745  156.2565 N.ar    1  UNL1       -0.2515
     28 C         140.1909  137.4998  154.7936 C.3     1  UNL1        0.1534
     29 N         139.3205  138.2658  157.2021 N.ar    1  UNL1       -0.1680
     30 C         142.9619  137.1337  156.4780 C.3     1  UNL1        0.1184
     31 N         143.1532  135.6862  156.1343 N.3     1  UNL1       -0.2652
     32 C         143.3696  134.6787  157.2243 C.3     1  UNL1        0.0900
     33 C         143.1280  135.2462  154.7004 C.3     1  UNL1        0.0900
@<TRIPOS>BOND
     1    13    14    1
     2    14    15   am
     3    15    16    2
     4    15     3    1
     5     3     4   ar
     6     4     5   ar
     7     5     6    1
     8     5     7   ar
     9     7     8   ar
    10     8     9   ar
    11     9    10   ar
    12    10     1    1
    13     1    18    1
    14    18    19   ar
    15    19    20   ar
    16    20    21   ar
    17    21    22   ar
    18    22    24    1
    19    24    25   ar
    20    25    26   ar
    21    26    30    1
    22    30    31    1
    23    31    32    1
    24    31    33    1
    25    26    27   ar
    26    27    28    1
    27    27    29   ar
    28    22    23   ar
    29    10    11   ar
    30    11    12   ar
    31    12     3   ar
    32    12     7   ar
    33    23    18   ar
    34    29    24   ar
    35    14    17    1
    36     1     2    1
@<TRIPOS>MOLECULE
*****
 33 36 0 0 0
SMALL
GASTEIGER

@<TRIPOS>ATOM
      1 N         143.9861  140.8862  161.4821 N.pl3   1  UNL1       -0.2825
      2 H         144.9676  140.8190  161.4448 H       1  UNL1        0.1551
      3 C         140.1504  144.5428  160.8982 C.ar    1  UNL1        0.1554
      4 N         139.9088  145.4859  159.7571 N.ar    1  UNL1       -0.1646
      5 N         140.9698  145.2453  158.7244 N.ar    1  UNL1       -0.2487
      6 C         141.1091  145.9694  157.4181 C.3     1  UNL1        0.1537
      7 C         141.8671  144.1535  159.2273 C.ar    1  UNL1        0.0796
      8 C         143.0798  143.4986  158.6354 C.ar    1  UNL1        0.0201
      9 C         143.7861  142.4095  159.3870 C.ar    1  UNL1        0.0162
     10 C         143.2797  141.9753  160.7305 C.ar    1  UNL1        0.0506
     11 C         142.0670  142.6302  161.3224 C.ar    1  UNL1        0.0179
     12 C         141.3607  143.7193  160.5708 C.ar    1  UNL1        0.0423
     13 C         139.0629  144.8115  164.7055 C.3     1  UNL1        0.1110
     14 N         139.8869  144.9133  163.4562 N.am    1  UNL1       -0.2979
     15 C         139.3264  144.4409  162.1475 C.2     1  UNL1        0.2654
     16 O         137.9420  143.8668  162.0881 O.2     1  UNL1       -0.2684
     17 H         140.7956  145.2902  163.4953 H       1  UNL1        0.1498
     18 C         143.1970  139.8993  162.2905 C.ar    1  UNL1        0.2207
     19 N         142.6576  138.6591  161.6417 N.ar    1  UNL1       -0.2120
     20 C         141.8685  137.6723  162.4502 C.ar    1  UNL1        0.1034
     21 C         141.6189  137.9257  163.9074 C.ar    1  UNL1        0.0415
     22 C         142.1583  139.1659  164.5562 C.ar    1  UNL1        0.1050
     23 N         142.9474  140.1527  163.7478 N.ar    1  UNL1       -0.2120
     24 C         141.9087  139.4192  166.0134 C.ar    1  UNL1        0.1198
     25 C         140.7391  140.1591  166.5920 C.ar    1  UNL1        0.0381
     26 C         140.8924  140.1743  168.0840 C.ar    1  UNL1        0.0734
     27 N         142.1567  139.4440  168.4276 N.ar    1  UNL1       -0.2515
     28 C         142.6980  139.2196  169.8084 C.3     1  UNL1        0.1534
     29 N         142.7848  138.9773  167.1478 N.ar    1  UNL1       -0.1680
     30 C         139.9473  140.8086  169.0610 C.3     1  UNL1        0.1184
     31 N         140.3755  142.0143  169.8440 N.3     1  UNL1       -0.2652
     32 C         140.3638  143.3693  169.2007 C.3     1  UNL1        0.0900
     33 C         140.8154  141.8649  171.2703 C.3     1  UNL1        0.0900
@<TRIPOS>BOND
     1    13    14    1
     2    14    15   am
     3    15    16    2
     4    15     3    1
     5     3     4   ar
     6     4     5   ar
     7     5     6    1
     8     5     7   ar
     9     7     8   ar
    10     8     9   ar
    11     9    10   ar
    12    10     1    1
    13     1    18    1
    14    18    19   ar
    15    19    20   ar
    16    20    21   ar
    17    21    22   ar
    18    22    24    1
    19    24    25   ar
    20    25    26   ar
    21    26    30    1
    22    30    31    1
    23    31    32    1
    24    31    33    1
    25    26    27   ar
    26    27    28    1
    27    27    29   ar
    28    22    23   ar
    29    10    11   ar
    30    11    12   ar
    31    12     3   ar
    32    12     7   ar
    33    23    18   ar
    34    29    24   ar
    35    14    17    1
    36     1     2    1
@<TRIPOS>MOLECULE
*****
 33 36 0 0 0
SMALL
GASTEIGER

@<TRIPOS>ATOM
      1 N         144.5490  141.7417  160.4031 N.pl3   1  UNL1       -0.2825
      2 H         145.5169  141.9074  160.3329 H       1  UNL1        0.1551
      3 C         140.3125  144.9697  160.6405 C.ar    1  UNL1        0.1554
      4 N         139.7153  145.8270  159.5642 N.ar    1  UNL1       -0.1646
      5 N         140.5299  145.6413  158.3185 N.ar    1  UNL1       -0.2487
      6 C         140.2867  146.3102  156.9981 C.3     1  UNL1        0.1537
      7 C         141.6305  144.6693  158.6249 C.ar    1  UNL1        0.0796
      8 C         142.7377  144.1085  157.7825 C.ar    1  UNL1        0.0201
      9 C         143.7105  143.1327  158.3752 C.ar    1  UNL1        0.0162
     10 C         143.5761  142.7176  159.8103 C.ar    1  UNL1        0.0506
     11 C         142.4689  143.2783  160.6527 C.ar    1  UNL1        0.0179
     12 C         141.4961  144.2542  160.0600 C.ar    1  UNL1        0.0423
     13 C         137.9018  144.2972  163.7207 C.3     1  UNL1        0.1110
     14 N         138.4007  144.4179  162.3112 N.am    1  UNL1       -0.2979
     15 C         139.8136  144.8490  162.0500 C.2     1  UNL1        0.2654
     16 O         140.7273  145.1594  163.1982 O.2     1  UNL1       -0.2684
     17 H         137.8009  144.2141  161.5576 H       1  UNL1        0.1498
     18 C         144.0471  140.5134  161.1026 C.ar    1  UNL1        0.2207
     19 N         144.1075  139.1815  160.4155 N.ar    1  UNL1       -0.2120
     20 C         143.6055  137.9532  161.1151 C.ar    1  UNL1        0.1034
     21 C         143.0432  138.0569  162.5018 C.ar    1  UNL1        0.0415
     22 C         142.9828  139.3889  163.1890 C.ar    1  UNL1        0.1050
     23 N         143.4847  140.6171  162.4894 N.ar    1  UNL1       -0.2120
     24 C         142.4205  139.4926  164.5757 C.ar    1  UNL1        0.1198
     25 C         143.2083  139.4558  165.8516 C.ar    1  UNL1        0.0381
     26 C         142.2464  139.5918  166.9945 C.ar    1  UNL1        0.0734
     27 N         140.8640  139.7127  166.4248 N.ar    1  UNL1       -0.2515
     28 C         139.5965  139.8677  167.2119 C.3     1  UNL1        0.1534
     29 N         140.9716  139.6514  164.9300 N.ar    1  UNL1       -0.1680
     30 C         142.6040  139.6047  168.4512 C.3     1  UNL1        0.1184
     31 N         142.4413  140.8624  169.2523 N.3     1  UNL1       -0.2652
     32 C         141.6193  140.8514  170.5069 C.3     1  UNL1        0.0900
     33 C         143.1007  142.1311  168.7987 C.3     1  UNL1        0.0900
@<TRIPOS>BOND
     1    13    14    1
     2    14    15   am
     3    15    16    2
     4    15     3    1
     5     3     4   ar
     6     4     5   ar
     7     5     6    1
     8     5     7   ar
     9     7     8   ar
    10     8     9   ar
    11     9    10   ar
    12    10     1    1
    13     1    18    1
    14    18    19   ar
    15    19    20   ar
    16    20    21   ar
    17    21    22   ar
    18    22    24    1
    19    24    25   ar
    20    25    26   ar
    21    26    30    1
    22    30    31    1
    23    31    32    1
    24    31    33    1
    25    26    27   ar
    26    27    28    1
    27    27    29   ar
    28    22    23   ar
    29    10    11   ar
    30    11    12   ar
    31    12     3   ar
    32    12     7   ar
    33    23    18   ar
    34    29    24   ar
    35    14    17    1
    36     1     2    1
@<TRIPOS>MOLECULE
*****
 33 36 0 0 0
SMALL
GASTEIGER

@<TRIPOS>ATOM
      1 N         143.8545  144.0673  163.3693 N.pl3   1  UNL1       -0.2825
      2 H         144.7125  144.5462  163.3089 H       1  UNL1        0.1551
      3 C         142.7662  141.3406  167.8196 C.ar    1  UNL1        0.1554
      4 N         142.8705  139.8662  168.0745 N.ar    1  UNL1       -0.1646
      5 N         143.3586  139.2116  166.8162 N.ar    1  UNL1       -0.2487
      6 C         143.6059  137.7447  166.6242 C.3     1  UNL1        0.1537
      7 C         143.5558  140.2815  165.7836 C.ar    1  UNL1        0.0796
      8 C         144.0215  140.2276  164.3587 C.ar    1  UNL1        0.0201
      9 C         144.1210  141.4895  163.5540 C.ar    1  UNL1        0.0162
     10 C         143.7549  142.8053  164.1741 C.ar    1  UNL1        0.0506
     11 C         143.2892  142.8593  165.5989 C.ar    1  UNL1        0.0179
     12 C         143.1897  141.5974  166.4037 C.ar    1  UNL1        0.0423
     13 C         140.4385  143.8671  169.8069 C.3     1  UNL1        0.1110
     14 N         140.8876  142.8311  168.8194 N.am    1  UNL1       -0.2979
     15 C         142.3171  142.3766  168.8071 C.2     1  UNL1        0.2654
     16 O         143.2973  142.9579  169.7822 O.2     1  UNL1       -0.2684
     17 H         140.2442  142.4496  168.1794 H       1  UNL1        0.1498
     18 C         142.6467  144.5996  162.6566 C.ar    1  UNL1        0.2207
     19 N         141.5504  145.2660  163.4337 N.ar    1  UNL1       -0.2120
     20 C         140.3426  145.7983  162.7209 C.ar    1  UNL1        0.1034
     21 C         140.2312  145.6641  161.2311 C.ar    1  UNL1        0.0415
     22 C         141.3275  144.9977  160.4540 C.ar    1  UNL1        0.1050
     23 N         142.5353  144.4654  161.1667 N.ar    1  UNL1       -0.2120
     24 C         141.2162  144.8635  158.9642 C.ar    1  UNL1        0.1198
     25 C         140.0218  144.3566  158.2114 C.ar    1  UNL1        0.0381
     26 C         140.3470  144.3925  156.7476 C.ar    1  UNL1        0.0734
     27 N         141.7424  144.9216  156.5956 N.ar    1  UNL1       -0.2515
     28 C         142.4725  145.1240  155.3010 C.3     1  UNL1        0.1534
     29 N         142.2795  145.2127  157.9656 N.ar    1  UNL1       -0.1680
     30 C         139.4368  143.9730  155.6316 C.3     1  UNL1        0.1184
     31 N         138.3767  144.9112  155.1355 N.3     1  UNL1       -0.2652
     32 C         138.5616  146.3931  155.2752 C.3     1  UNL1        0.0900
     33 C         137.1316  144.3673  154.4997 C.3     1  UNL1        0.0900
@<TRIPOS>BOND
     1    13    14    1
     2    14    15   am
     3    15    16    2
     4    15     3    1
     5     3     4   ar
     6     4     5   ar
     7     5     6    1
     8     5     7   ar
     9     7     8   ar
    10     8     9   ar
    11     9    10   ar
    12    10     1    1
    13     1    18    1
    14    18    19   ar
    15    19    20   ar
    16    20    21   ar
    17    21    22   ar
    18    22    24    1
    19    24    25   ar
    20    25    26   ar
    21    26    30    1
    22    30    31    1
    23    31    32    1
    24    31    33    1
    25    26    27   ar
    26    27    28    1
    27    27    29   ar
    28    22    23   ar
    29    10    11   ar
    30    11    12   ar
    31    12     3   ar
    32    12     7   ar
    33    23    18   ar
    34    29    24   ar
    35    14    17    1
    36     1     2    1
@<TRIPOS>MOLECULE
*****
 33 36 0 0 0
SMALL
GASTEIGER

@<TRIPOS>ATOM
      1 N         137.8591  140.7998  161.0599 N.pl3   1  UNL1       -0.2825
      2 H         136.9261  140.6213  160.8014 H       1  UNL1        0.1551
      3 C         142.6354  138.4313  161.0287 C.ar    1  UNL1        0.1554
      4 N         143.3457  137.7499  159.8968 N.ar    1  UNL1       -0.1646
      5 N         142.4673  137.8295  158.6835 N.ar    1  UNL1       -0.2487
      6 C         142.7860  137.2757  157.3264 C.3     1  UNL1        0.1537
      7 C         141.2141  138.5601  159.0656 C.ar    1  UNL1        0.0796
      8 C         139.9919  138.9346  158.2809 C.ar    1  UNL1        0.0201
      9 C         138.8736  139.6812  158.9457 C.ar    1  UNL1        0.0162
     10 C         138.9775  140.0532  160.3951 C.ar    1  UNL1        0.0506
     11 C         140.1998  139.6786  161.1798 C.ar    1  UNL1        0.0179
     12 C         141.3181  138.9320  160.5150 C.ar    1  UNL1        0.0423
     13 C         144.9470  139.4821  164.0788 C.3     1  UNL1        0.1110
     14 N         144.4306  139.3284  162.6789 N.am    1  UNL1       -0.2979
     15 C         143.1519  138.5851  162.4286 C.2     1  UNL1        0.2654
     16 O         142.3898  137.9957  163.5782 O.2     1  UNL1       -0.2684
     17 H         144.9309  139.7153  161.9244 H       1  UNL1        0.1498
     18 C         138.1623  141.8183  162.1185 C.ar    1  UNL1        0.2207
     19 N         137.6183  143.2109  161.9972 N.ar    1  UNL1       -0.2120
     20 C         137.9215  144.2294  163.0559 C.ar    1  UNL1        0.1034
     21 C         138.7688  143.8553  164.2358 C.ar    1  UNL1        0.0415
     22 C         139.3128  142.4627  164.3570 C.ar    1  UNL1        0.1050
     23 N         139.0096  141.4442  163.2984 N.ar    1  UNL1       -0.2120
     24 C         140.1601  142.0886  165.5369 C.ar    1  UNL1        0.1198
     25 C         140.3905  142.9280  166.7585 C.ar    1  UNL1        0.0381
     26 C         141.2986  142.1676  167.6790 C.ar    1  UNL1        0.0734
     27 N         141.6293  140.8582  167.0262 N.ar    1  UNL1       -0.2515
     28 C         142.5093  139.7859  167.5971 C.3     1  UNL1        0.1534
     29 N         140.9257  140.8094  165.7024 N.ar    1  UNL1       -0.1680
     30 C         141.7896  142.6346  169.0172 C.3     1  UNL1        0.1184
     31 N         141.0741  142.2147  170.2669 N.3     1  UNL1       -0.2652
     32 C         141.6402  141.1216  171.1240 C.3     1  UNL1        0.0900
     33 C         139.7924  142.8881  170.6596 C.3     1  UNL1        0.0900
@<TRIPOS>BOND
     1    13    14    1
     2    14    15   am
     3    15    16    2
     4    15     3    1
     5     3     4   ar
     6     4     5   ar
     7     5     6    1
     8     5     7   ar
     9     7     8   ar
    10     8     9   ar
    11     9    10   ar
    12    10     1    1
    13     1    18    1
    14    18    19   ar
    15    19    20   ar
    16    20    21   ar
    17    21    22   ar
    18    22    24    1
    19    24    25   ar
    20    25    26   ar
    21    26    30    1
    22    30    31    1
    23    31    32    1
    24    31    33    1
    25    26    27   ar
    26    27    28    1
    27    27    29   ar
    28    22    23   ar
    29    10    11   ar
    30    11    12   ar
    31    12     3   ar
    32    12     7   ar
    33    23    18   ar
    34    29    24   ar
    35    14    17    1
    36     1     2    1
@<TRIPOS>MOLECULE
*****
 33 36 0 0 0
SMALL
GASTEIGER

@<TRIPOS>ATOM
      1 N         140.7823  145.5269  160.9986 N.pl3   1  UNL1       -0.2825
      2 H         141.3787  146.2836  161.2009 H       1  UNL1        0.1551
      3 C         139.6903  146.2442  155.8298 C.ar    1  UNL1        0.1554
      4 N         139.7050  145.2435  154.7125 N.ar    1  UNL1       -0.1646
      5 N         140.0974  143.9142  155.2860 N.ar    1  UNL1       -0.2487
      6 C         140.2374  142.6310  154.5219 C.3     1  UNL1        0.1537
      7 C         140.3251  144.0932  156.7577 C.ar    1  UNL1        0.0796
      8 C         140.7291  143.1311  157.8352 C.ar    1  UNL1        0.0201
      9 C         140.8815  143.6090  159.2488 C.ar    1  UNL1        0.0162
     10 C         140.6299  145.0490  159.5849 C.ar    1  UNL1        0.0506
     11 C         140.2259  146.0112  158.5074 C.ar    1  UNL1        0.0179
     12 C         140.0735  145.5333  157.0938 C.ar    1  UNL1        0.0423
     13 C         138.2974  149.8580  156.6962 C.3     1  UNL1        0.1110
     14 N         138.6359  148.4020  156.8209 N.am    1  UNL1       -0.2979
     15 C         139.3518  147.7001  155.7050 C.2     1  UNL1        0.2654
     16 O         139.7290  148.4543  154.4646 O.2     1  UNL1       -0.2684
     17 H         138.3883  147.9071  157.6351 H       1  UNL1        0.1498
     18 C         140.0260  144.8518  162.1042 C.ar    1  UNL1        0.2207
     19 N         138.5499  145.0757  162.2487 N.ar    1  UNL1       -0.2120
     20 C         137.7936  144.4006  163.3543 C.ar    1  UNL1        0.1034
     21 C         138.5134  143.5016  164.3153 C.ar    1  UNL1        0.0415
     22 C         139.9896  143.2777  164.1708 C.ar    1  UNL1        0.1050
     23 N         140.7459  143.9528  163.0653 N.ar    1  UNL1       -0.2120
     24 C         140.7094  142.3787  165.1318 C.ar    1  UNL1        0.1198
     25 C         140.9105  142.6340  166.5962 C.ar    1  UNL1        0.0381
     26 C         141.6799  141.4797  167.1666 C.ar    1  UNL1        0.0734
     27 N         141.9545  140.5110  166.0547 N.ar    1  UNL1       -0.2515
     28 C         142.6983  139.2142  166.1787 C.3     1  UNL1        0.1534
     29 N         141.3547  141.0666  164.7972 N.ar    1  UNL1       -0.1680
     30 C         142.1009  141.3218  168.5976 C.3     1  UNL1        0.1184
     31 N         141.5239  140.2165  169.4316 N.3     1  UNL1       -0.2652
     32 C         140.0638  140.2203  169.7752 C.3     1  UNL1        0.0900
     33 C         142.4070  139.1075  169.9220 C.3     1  UNL1        0.0900
@<TRIPOS>BOND
     1    13    14    1
     2    14    15   am
     3    15    16    2
     4    15     3    1
     5     3     4   ar
     6     4     5   ar
     7     5     6    1
     8     5     7   ar
     9     7     8   ar
    10     8     9   ar
    11     9    10   ar
    12    10     1    1
    13     1    18    1
    14    18    19   ar
    15    19    20   ar
    16    20    21   ar
    17    21    22   ar
    18    22    24    1
    19    24    25   ar
    20    25    26   ar
    21    26    30    1
    22    30    31    1
    23    31    32    1
    24    31    33    1
    25    26    27   ar
    26    27    28    1
    27    27    29   ar
    28    22    23   ar
    29    10    11   ar
    30    11    12   ar
    31    12     3   ar
    32    12     7   ar
    33    23    18   ar
    34    29    24   ar
    35    14    17    1
    36     1     2    1
