@<TRIPOS>MOLECULE
*****
 39 42 0 0 0
SMALL
GASTEIGER

@<TRIPOS>ATOM
      1 C         140.5510  139.5120  158.6837 C.3     1  UNL1        0.2032
      2 C         140.5692  138.5520  159.8360 C.3     1  UNL1        0.0680
      3 C         139.7246  138.8177  161.0469 C.3     1  UNL1        0.0973
      4 N         138.8619  140.0433  161.1054 N.am    1  UNL1       -0.2762
      5 C         138.0174  140.3090  162.3162 C.2     1  UNL1        0.2301
      6 O         137.1547  141.5347  162.3747 O.2     1  UNL1       -0.2745
      7 C         138.8438  141.0034  159.9530 C.3     1  UNL1        0.1323
      8 C         139.6883  140.7378  158.7422 C.3     1  UNL1        0.2202
      9 F         139.6702  141.6978  157.5898 F       1  UNL1       -0.2316
     10 O         141.3956  139.2464  157.4728 O.3     1  UNL1       -0.4609
     11 C         142.2369  135.0126  156.2011 C.ar    1  UNL1        0.0387
     12 C         143.1771  135.7163  157.1343 C.ar    1  UNL1        0.1036
     13 N         142.8966  137.1275  157.5582 N.ar    1  UNL1       -0.2100
     14 C         141.6760  137.8351  157.0489 C.ar    1  UNL1        0.2292
     15 C         140.7358  137.1315  156.1157 C.ar    1  UNL1        0.1062
     16 C         141.0163  135.7202  155.6918 C.ar    1  UNL1        0.0123
     17 C         143.4082  130.7947  153.2485 C.3     1  UNL1        0.1321
     18 N         143.0557  131.6626  154.4200 N.ar    1  UNL1       -0.3059
     19 C         142.8420  131.1966  155.8298 C.ar    1  UNL1        0.1786
     20 N         142.5093  132.3949  156.6685 N.ar    1  UNL1       -0.2238
     21 C         142.5173  133.6013  155.7772 C.ar    1  UNL1        0.1017
     22 C         142.8550  133.1487  154.3876 C.ar    1  UNL1        0.0965
     23 C         139.5152  137.8390  155.6063 C.2     1  UNL1        0.2473
     24 N         139.6203  139.2485  155.1039 N.am    1  UNL1       -0.3252
     25 O         138.1896  137.1372  155.5994 O.2     1  UNL1       -0.2702
     26 H         140.4903  139.7091  155.1085 H       1  UNL1        0.1453
     27 H         138.8191  139.7129  154.7696 H       1  UNL1        0.1453
     28 C         138.0355  139.3489  163.4686 C.3     1  UNL1        0.1116
     29 C         138.6081  139.7725  164.7887 C.ar    1  UNL1       -0.0129
     30 C         138.2295  139.0383  166.0407 C.ar    1  UNL1       -0.0007
     31 C         138.8021  139.4618  167.3608 C.ar    1  UNL1        0.0369
     32 C         139.7532  140.6197  167.4290 C.ar    1  UNL1        0.1468
     33 C         140.1318  141.3539  166.1770 C.ar    1  UNL1        0.0369
     34 C         139.5593  140.9304  164.8569 C.ar    1  UNL1       -0.0007
     35 O         140.3258  141.0433  168.7491 O.3     1  UNL1       -0.4045
     36 C         139.9678  140.2927  169.9975 C.3     1  UNL1        0.5753
     37 F         139.6097  139.5421  171.2458 F       1  UNL1       -0.1328
     38 F         141.1371  139.3780  169.7829 F       1  UNL1       -0.1328
     39 F         138.7984  141.2073  170.2120 F       1  UNL1       -0.1328
@<TRIPOS>BOND
     1    17    18    1
     2    18    19   ar
     3    19    20   ar
     4    20    21   ar
     5    21    11    1
     6    11    12   ar
     7    12    13   ar
     8    13    14   ar
     9    14    10    1
    10     1    10    1
    11     1     2    1
    12     2     3    1
    13     3     4    1
    14     4     5   am
    15     5     6    2
    16     5    28    1
    17    28    29    1
    18    29    30   ar
    19    30    31   ar
    20    31    32   ar
    21    32    35    1
    22    35    36    1
    23    36    37    1
    24    36    38    1
    25    36    39    1
    26    32    33   ar
    27    33    34   ar
    28     4     7    1
    29     7     8    1
    30     8     9    1
    31    14    15   ar
    32    15    23    1
    33    23    24   am
    34    23    25    2
    35    15    16   ar
    36    21    22   ar
    37    22    18   ar
    38    16    11   ar
    39     8     1    1
    40    34    29   ar
    41    24    26    1
    42    24    27    1
@<TRIPOS>MOLECULE
*****
 39 42 0 0 0
SMALL
GASTEIGER

@<TRIPOS>ATOM
      1 C         142.1653  138.8439  159.4768 C.3     1  UNL1        0.2032
      2 C         141.3060  138.1821  160.5130 C.3     1  UNL1        0.0680
      3 C         141.7148  138.2108  161.9560 C.3     1  UNL1        0.0973
      4 N         142.9828  138.9011  162.3627 N.am    1  UNL1       -0.2762
      5 C         143.3916  138.9297  163.8056 C.2     1  UNL1        0.2301
      6 O         144.6597  139.6201  164.2124 O.2     1  UNL1       -0.2745
      7 C         143.8421  139.5629  161.3265 C.3     1  UNL1        0.1323
      8 C         143.4334  139.5343  159.8836 C.3     1  UNL1        0.2202
      9 F         144.2927  140.1960  158.8474 F       1  UNL1       -0.2316
     10 O         141.7566  138.8153  158.0338 O.3     1  UNL1       -0.4609
     11 C         142.4072  135.0969  155.5843 C.ar    1  UNL1        0.0387
     12 C         143.5461  135.6961  156.3550 C.ar    1  UNL1        0.1036
     13 N         143.3292  136.9355  157.1715 N.ar    1  UNL1       -0.2100
     14 C         141.9734  137.5758  157.2173 C.ar    1  UNL1        0.2292
     15 C         140.8346  136.9765  156.4466 C.ar    1  UNL1        0.1062
     16 C         141.0515  135.7371  155.6302 C.ar    1  UNL1        0.0123
     17 C         144.0531  130.3219  154.0444 C.3     1  UNL1        0.1321
     18 N         143.3806  131.6626  154.0599 N.ar    1  UNL1       -0.3059
     19 C         142.5349  132.2376  152.9625 C.ar    1  UNL1        0.1786
     20 N         142.0674  133.5940  153.4000 N.ar    1  UNL1       -0.2238
     21 C         142.6241  133.8574  154.7678 C.ar    1  UNL1        0.1017
     22 C         143.4357  132.6637  155.1756 C.ar    1  UNL1        0.0965
     23 C         139.4789  137.6168  156.4925 C.2     1  UNL1        0.2473
     24 N         139.2663  138.8664  157.2945 N.am    1  UNL1       -0.3252
     25 O         138.3357  137.0074  155.7363 O.2     1  UNL1       -0.2702
     26 H         140.0166  139.2664  157.7908 H       1  UNL1        0.1453
     27 H         138.3765  139.2866  157.3246 H       1  UNL1        0.1453
     28 C         142.5323  138.2680  164.8418 C.3     1  UNL1        0.1116
     29 C         142.1201  139.0253  166.0693 C.ar    1  UNL1       -0.0129
     30 C         142.9846  138.9952  167.2947 C.ar    1  UNL1       -0.0007
     31 C         142.5724  139.7524  168.5221 C.ar    1  UNL1        0.0369
     32 C         141.2957  140.5398  168.5242 C.ar    1  UNL1        0.1468
     33 C         140.4312  140.5699  167.2987 C.ar    1  UNL1        0.0369
     34 C         140.8433  139.8126  166.0713 C.ar    1  UNL1       -0.0007
     35 O         140.8835  141.2971  169.7516 O.3     1  UNL1       -0.4045
     36 C         140.6220  142.7719  169.6704 C.3     1  UNL1        0.5753
     37 F         140.3604  144.2466  169.5892 F       1  UNL1       -0.1328
     38 F         139.2869  142.5711  170.3241 F       1  UNL1       -0.1328
     39 F         141.9571  142.9726  169.0168 F       1  UNL1       -0.1328
@<TRIPOS>BOND
     1    17    18    1
     2    18    19   ar
     3    19    20   ar
     4    20    21   ar
     5    21    11    1
     6    11    12   ar
     7    12    13   ar
     8    13    14   ar
     9    14    10    1
    10     1    10    1
    11     1     2    1
    12     2     3    1
    13     3     4    1
    14     4     5   am
    15     5     6    2
    16     5    28    1
    17    28    29    1
    18    29    30   ar
    19    30    31   ar
    20    31    32   ar
    21    32    35    1
    22    35    36    1
    23    36    37    1
    24    36    38    1
    25    36    39    1
    26    32    33   ar
    27    33    34   ar
    28     4     7    1
    29     7     8    1
    30     8     9    1
    31    14    15   ar
    32    15    23    1
    33    23    24   am
    34    23    25    2
    35    15    16   ar
    36    21    22   ar
    37    22    18   ar
    38    16    11   ar
    39     8     1    1
    40    34    29   ar
    41    24    26    1
    42    24    27    1
@<TRIPOS>MOLECULE
*****
 39 42 0 0 0
SMALL
GASTEIGER

@<TRIPOS>ATOM
      1 C         142.7837  139.4576  158.4735 C.3     1  UNL1        0.2032
      2 C         142.7888  138.4881  159.6182 C.3     1  UNL1        0.0680
      3 C         143.4296  138.8684  160.9201 C.3     1  UNL1        0.0973
      4 N         144.0651  140.2179  161.0773 N.am    1  UNL1       -0.2762
      5 C         144.7058  140.5981  162.3792 C.2     1  UNL1        0.2301
      6 O         145.3414  141.9477  162.5365 O.2     1  UNL1       -0.2745
      7 C         144.0599  141.1873  159.9327 C.3     1  UNL1        0.1323
      8 C         143.4192  140.8072  158.6308 C.3     1  UNL1        0.2202
      9 F         143.4140  141.7766  157.4861 F       1  UNL1       -0.2316
     10 O         142.1429  139.0774  157.1716 O.3     1  UNL1       -0.4609
     11 C         142.7987  134.9692  155.4562 C.ar    1  UNL1        0.0387
     12 C         143.9704  135.8679  155.7191 C.ar    1  UNL1        0.1036
     13 N         143.7519  137.2373  156.2909 N.ar    1  UNL1       -0.2100
     14 C         142.3615  137.7080  156.5998 C.ar    1  UNL1        0.2292
     15 C         141.1897  136.8092  156.3368 C.ar    1  UNL1        0.1062
     16 C         141.4083  135.4399  155.7650 C.ar    1  UNL1        0.0123
     17 C         144.4526  129.9939  154.8298 C.3     1  UNL1        0.1321
     18 N         143.7774  131.3129  154.5964 N.ar    1  UNL1       -0.3059
     19 C         142.9296  131.6721  153.4122 C.ar    1  UNL1        0.1786
     20 N         142.4597  133.0854  153.5902 N.ar    1  UNL1       -0.2238
     21 C         143.0172  133.5998  154.8843 C.ar    1  UNL1        0.1017
     22 C         143.8316  132.5043  155.5062 C.ar    1  UNL1        0.0965
     23 C         139.7994  137.2799  156.6457 C.2     1  UNL1        0.2473
     24 N         139.5565  138.1834  157.8181 N.am    1  UNL1       -0.3252
     25 O         138.6519  136.8470  155.7821 O.2     1  UNL1       -0.2702
     26 H         140.3096  138.4675  158.3849 H       1  UNL1        0.1453
     27 H         138.6439  138.4923  158.0208 H       1  UNL1        0.1453
     28 C         144.7110  139.6287  163.5238 C.3     1  UNL1        0.1116
     29 C         143.9241  139.9294  164.7650 C.ar    1  UNL1       -0.0129
     30 C         143.6287  141.3516  165.1395 C.ar    1  UNL1       -0.0007
     31 C         142.8418  141.6524  166.3805 C.ar    1  UNL1        0.0369
     32 C         142.3503  140.5311  167.2471 C.ar    1  UNL1        0.1468
     33 C         142.6457  139.1089  166.8726 C.ar    1  UNL1        0.0369
     34 C         143.4326  138.8081  165.6315 C.ar    1  UNL1       -0.0007
     35 O         141.5634  140.8319  168.4882 O.3     1  UNL1       -0.4045
     36 C         140.1694  140.2991  168.6399 C.3     1  UNL1        0.5753
     37 F         138.7754  139.7664  168.7916 F       1  UNL1       -0.1328
     38 F         140.6118  139.4753  169.8128 F       1  UNL1       -0.1328
     39 F         139.7270  141.1229  167.4670 F       1  UNL1       -0.1328
@<TRIPOS>BOND
     1    17    18    1
     2    18    19   ar
     3    19    20   ar
     4    20    21   ar
     5    21    11    1
     6    11    12   ar
     7    12    13   ar
     8    13    14   ar
     9    14    10    1
    10     1    10    1
    11     1     2    1
    12     2     3    1
    13     3     4    1
    14     4     5   am
    15     5     6    2
    16     5    28    1
    17    28    29    1
    18    29    30   ar
    19    30    31   ar
    20    31    32   ar
    21    32    35    1
    22    35    36    1
    23    36    37    1
    24    36    38    1
    25    36    39    1
    26    32    33   ar
    27    33    34   ar
    28     4     7    1
    29     7     8    1
    30     8     9    1
    31    14    15   ar
    32    15    23    1
    33    23    24   am
    34    23    25    2
    35    15    16   ar
    36    21    22   ar
    37    22    18   ar
    38    16    11   ar
    39     8     1    1
    40    34    29   ar
    41    24    26    1
    42    24    27    1
@<TRIPOS>MOLECULE
*****
 39 42 0 0 0
SMALL
GASTEIGER

@<TRIPOS>ATOM
      1 C         141.7700  144.6948  161.1998 C.3     1  UNL1        0.2032
      2 C         141.5733  145.0148  162.6520 C.3     1  UNL1        0.0680
      3 C         142.4319  144.3529  163.6888 C.3     1  UNL1        0.0973
      4 N         143.4870  143.3711  163.2734 N.am    1  UNL1       -0.2762
      5 C         144.3455  142.7092  164.3101 C.2     1  UNL1        0.2301
      6 O         145.4008  141.7274  163.8947 O.2     1  UNL1       -0.2745
      7 C         143.6837  143.0511  161.8212 C.3     1  UNL1        0.1323
      8 C         142.8252  143.7129  160.7844 C.3     1  UNL1        0.2202
      9 F         143.0218  143.3929  159.3322 F       1  UNL1       -0.2316
     10 O         140.9115  145.3566  160.1631 O.3     1  UNL1       -0.4609
     11 C         138.4801  142.8525  157.3227 C.ar    1  UNL1        0.0387
     12 C         138.4016  142.6014  158.7994 C.ar    1  UNL1        0.1036
     13 N         139.2121  143.4361  159.7462 N.ar    1  UNL1       -0.2100
     14 C         140.1010  144.5219  159.2162 C.ar    1  UNL1        0.2292
     15 C         140.1795  144.7730  157.7395 C.ar    1  UNL1        0.1062
     16 C         139.3690  143.9383  156.7927 C.ar    1  UNL1        0.0123
     17 C         136.7735  138.7984  154.4015 C.3     1  UNL1        0.1321
     18 N         136.8852  140.1544  155.0331 N.ar    1  UNL1       -0.3059
     19 C         135.9596  141.3125  154.8045 C.ar    1  UNL1        0.1786
     20 N         136.4444  142.4641  155.6343 N.ar    1  UNL1       -0.2238
     21 C         137.6696  142.0178  156.3758 C.ar    1  UNL1        0.1017
     22 C         137.9420  140.5903  156.0043 C.ar    1  UNL1        0.0965
     23 C         141.0684  145.8588  157.2095 C.2     1  UNL1        0.2473
     24 N         142.4000  146.1172  157.8497 N.am    1  UNL1       -0.3252
     25 O         140.6257  146.6862  156.0394 O.2     1  UNL1       -0.2702
     26 H         142.6906  145.5741  158.6178 H       1  UNL1        0.1453
     27 H         142.9835  146.8298  157.5019 H       1  UNL1        0.1453
     28 C         144.1489  143.0292  165.7624 C.3     1  UNL1        0.1116
     29 C         143.2781  142.1521  166.6124 C.ar    1  UNL1       -0.0129
     30 C         142.6014  140.9569  166.0094 C.ar    1  UNL1       -0.0007
     31 C         141.7307  140.0798  166.8593 C.ar    1  UNL1        0.0369
     32 C         141.5367  140.3978  168.3123 C.ar    1  UNL1        0.1468
     33 C         142.2135  141.5929  168.9153 C.ar    1  UNL1        0.0369
     34 C         143.0842  142.4701  168.0654 C.ar    1  UNL1       -0.0007
     35 O         140.6660  139.5206  169.1623 O.3     1  UNL1       -0.4045
     36 C         139.3754  140.0519  169.7120 C.3     1  UNL1        0.5753
     37 F         138.0848  140.5832  170.2617 F       1  UNL1       -0.1328
     38 F         140.0207  140.2306  171.0543 F       1  UNL1       -0.1328
     39 F         138.7301  139.8732  168.3698 F       1  UNL1       -0.1328
@<TRIPOS>BOND
     1    17    18    1
     2    18    19   ar
     3    19    20   ar
     4    20    21   ar
     5    21    11    1
     6    11    12   ar
     7    12    13   ar
     8    13    14   ar
     9    14    10    1
    10     1    10    1
    11     1     2    1
    12     2     3    1
    13     3     4    1
    14     4     5   am
    15     5     6    2
    16     5    28    1
    17    28    29    1
    18    29    30   ar
    19    30    31   ar
    20    31    32   ar
    21    32    35    1
    22    35    36    1
    23    36    37    1
    24    36    38    1
    25    36    39    1
    26    32    33   ar
    27    33    34   ar
    28     4     7    1
    29     7     8    1
    30     8     9    1
    31    14    15   ar
    32    15    23    1
    33    23    24   am
    34    23    25    2
    35    15    16   ar
    36    21    22   ar
    37    22    18   ar
    38    16    11   ar
    39     8     1    1
    40    34    29   ar
    41    24    26    1
    42    24    27    1
@<TRIPOS>MOLECULE
*****
 39 42 0 0 0
SMALL
GASTEIGER

@<TRIPOS>ATOM
      1 C         141.7290  144.8747  159.3385 C.3     1  UNL1        0.2032
      2 C         140.5047  145.7251  159.1720 C.3     1  UNL1        0.0680
      3 C         140.0147  146.0735  157.7977 C.3     1  UNL1        0.0973
      4 N         140.7490  145.5714  156.5900 N.am    1  UNL1       -0.2762
      5 C         140.2590  145.9197  155.2158 C.2     1  UNL1        0.2301
      6 O         140.9934  145.4176  154.0080 O.2     1  UNL1       -0.2745
      7 C         141.9734  144.7209  156.7565 C.3     1  UNL1        0.1323
      8 C         142.4633  144.3725  158.1307 C.3     1  UNL1        0.2202
      9 F         143.6877  143.5221  158.2973 F       1  UNL1       -0.2316
     10 O         142.2190  144.5263  160.7128 O.3     1  UNL1       -0.4609
     11 C         140.3227  141.1370  162.9857 C.ar    1  UNL1        0.0387
     12 C         141.4871  140.8724  162.0779 C.ar    1  UNL1        0.1036
     13 N         142.1192  142.0022  161.3203 N.ar    1  UNL1       -0.2100
     14 C         141.5869  143.3965  161.4704 C.ar    1  UNL1        0.2292
     15 C         140.4225  143.6611  162.3782 C.ar    1  UNL1        0.1062
     16 C         139.7904  142.5313  163.1359 C.ar    1  UNL1        0.0123
     17 C         137.7813  138.3892  166.7102 C.3     1  UNL1        0.1321
     18 N         138.5224  138.7442  165.4553 N.ar    1  UNL1       -0.3059
     19 C         138.9132  137.7931  164.3631 C.ar    1  UNL1        0.1786
     20 N         139.6351  138.5737  163.3051 N.ar    1  UNL1       -0.2238
     21 C         139.6905  140.0072  163.7434 C.ar    1  UNL1        0.1017
     22 C         139.0028  140.1125  165.0722 C.ar    1  UNL1        0.0965
     23 C         139.8902  145.0554  162.5284 C.2     1  UNL1        0.2473
     24 N         140.8249  146.1850  162.8448 N.am    1  UNL1       -0.3252
     25 O         138.4231  145.3201  162.3622 O.2     1  UNL1       -0.2702
     26 H         141.7878  146.0113  162.9539 H       1  UNL1        0.1453
     27 H         140.4755  147.1001  162.9434 H       1  UNL1        0.1453
     28 C         139.0347  146.7702  155.0493 C.3     1  UNL1        0.1116
     29 C         139.1554  148.2654  155.0427 C.ar    1  UNL1       -0.0129
     30 C         139.9590  148.9482  153.9760 C.ar    1  UNL1       -0.0007
     31 C         140.0797  150.4433  153.9693 C.ar    1  UNL1        0.0369
     32 C         139.3967  151.2556  155.0294 C.ar    1  UNL1        0.1468
     33 C         138.5930  150.5727  156.0961 C.ar    1  UNL1        0.0369
     34 C         138.4724  149.0776  156.1027 C.ar    1  UNL1       -0.0007
     35 O         139.5174  152.7507  155.0227 O.3     1  UNL1       -0.4045
     36 C         138.2871  153.6020  154.9138 C.3     1  UNL1        0.5753
     37 F         137.0568  154.4532  154.8048 F       1  UNL1       -0.1328
     38 F         138.0863  153.1313  153.5038 F       1  UNL1       -0.1328
     39 F         138.4879  154.0726  156.3238 F       1  UNL1       -0.1328
@<TRIPOS>BOND
     1    17    18    1
     2    18    19   ar
     3    19    20   ar
     4    20    21   ar
     5    21    11    1
     6    11    12   ar
     7    12    13   ar
     8    13    14   ar
     9    14    10    1
    10     1    10    1
    11     1     2    1
    12     2     3    1
    13     3     4    1
    14     4     5   am
    15     5     6    2
    16     5    28    1
    17    28    29    1
    18    29    30   ar
    19    30    31   ar
    20    31    32   ar
    21    32    35    1
    22    35    36    1
    23    36    37    1
    24    36    38    1
    25    36    39    1
    26    32    33   ar
    27    33    34   ar
    28     4     7    1
    29     7     8    1
    30     8     9    1
    31    14    15   ar
    32    15    23    1
    33    23    24   am
    34    23    25    2
    35    15    16   ar
    36    21    22   ar
    37    22    18   ar
    38    16    11   ar
    39     8     1    1
    40    34    29   ar
    41    24    26    1
    42    24    27    1
@<TRIPOS>MOLECULE
*****
 39 42 0 0 0
SMALL
GASTEIGER

@<TRIPOS>ATOM
      1 C         139.4791  141.9440  158.1409 C.3     1  UNL1        0.2032
      2 C         139.1203  142.8579  159.2749 C.3     1  UNL1        0.0680
      3 C         138.5576  142.2920  160.5451 C.3     1  UNL1        0.0973
      4 N         138.3539  140.8122  160.6812 N.am    1  UNL1       -0.2762
      5 C         137.7913  140.2463  161.9513 C.2     1  UNL1        0.2301
      6 O         137.5875  138.7664  162.0875 O.2     1  UNL1       -0.2745
      7 C         138.7127  139.8982  159.5472 C.3     1  UNL1        0.1323
      8 C         139.2753  140.4641  158.2771 C.3     1  UNL1        0.2202
      9 F         139.6342  139.5501  157.1431 F       1  UNL1       -0.2316
     10 O         140.0418  142.5098  156.8708 O.3     1  UNL1       -0.4609
     11 C         139.3872  146.8445  155.8548 C.ar    1  UNL1        0.0387
     12 C         138.3860  145.8138  155.4245 C.ar    1  UNL1        0.1036
     13 N         138.6041  144.3690  155.7632 N.ar    1  UNL1       -0.2100
     14 C         139.8236  143.9548  156.5322 C.ar    1  UNL1        0.2292
     15 C         140.8249  144.9854  156.9625 C.ar    1  UNL1        0.1062
     16 C         140.6067  146.4302  156.6238 C.ar    1  UNL1        0.0123
     17 C         139.4320  151.4662  153.3016 C.3     1  UNL1        0.1321
     18 N         139.1896  150.4138  154.3426 N.ar    1  UNL1       -0.3059
     19 C         138.4770  150.6120  155.6476 C.ar    1  UNL1        0.1786
     20 N         138.4644  149.2991  156.3729 N.ar    1  UNL1       -0.2238
     21 C         139.1691  148.2894  155.5162 C.ar    1  UNL1        0.1017
     22 C         139.6173  148.9783  154.2614 C.ar    1  UNL1        0.0965
     23 C         142.0443  144.5712  157.7315 C.2     1  UNL1        0.2473
     24 N         143.1015  143.7383  157.0692 N.am    1  UNL1       -0.3252
     25 O         142.2066  144.9898  159.1626 O.2     1  UNL1       -0.2702
     26 H         142.9951  143.4635  156.1299 H       1  UNL1        0.1453
     27 H         143.9019  143.4664  157.5740 H       1  UNL1        0.1453
     28 C         137.4324  141.1603  163.0853 C.3     1  UNL1        0.1116
     29 C         138.2600  141.1638  164.3364 C.ar    1  UNL1       -0.0129
     30 C         138.2787  139.9567  165.2266 C.ar    1  UNL1       -0.0007
     31 C         139.1062  139.9602  166.4777 C.ar    1  UNL1        0.0369
     32 C         139.9150  141.1708  166.8385 C.ar    1  UNL1        0.1468
     33 C         139.8962  142.3779  165.9483 C.ar    1  UNL1        0.0369
     34 C         139.0687  142.3744  164.6972 C.ar    1  UNL1       -0.0007
     35 O         140.7425  141.1743  168.0896 O.3     1  UNL1       -0.4045
     36 C         140.9687  142.4559  168.8356 C.3     1  UNL1        0.5753
     37 F         141.1949  143.7374  169.5815 F       1  UNL1       -0.1328
     38 F         139.6372  142.2993  169.5083 F       1  UNL1       -0.1328
     39 F         142.3002  142.6124  168.1629 F       1  UNL1       -0.1328
@<TRIPOS>BOND
     1    17    18    1
     2    18    19   ar
     3    19    20   ar
     4    20    21   ar
     5    21    11    1
     6    11    12   ar
     7    12    13   ar
     8    13    14   ar
     9    14    10    1
    10     1    10    1
    11     1     2    1
    12     2     3    1
    13     3     4    1
    14     4     5   am
    15     5     6    2
    16     5    28    1
    17    28    29    1
    18    29    30   ar
    19    30    31   ar
    20    31    32   ar
    21    32    35    1
    22    35    36    1
    23    36    37    1
    24    36    38    1
    25    36    39    1
    26    32    33   ar
    27    33    34   ar
    28     4     7    1
    29     7     8    1
    30     8     9    1
    31    14    15   ar
    32    15    23    1
    33    23    24   am
    34    23    25    2
    35    15    16   ar
    36    21    22   ar
    37    22    18   ar
    38    16    11   ar
    39     8     1    1
    40    34    29   ar
    41    24    26    1
    42    24    27    1
@<TRIPOS>MOLECULE
*****
 39 42 0 0 0
SMALL
GASTEIGER

@<TRIPOS>ATOM
      1 C         140.1913  141.1127  159.8465 C.3     1  UNL1        0.2032
      2 C         140.4548  140.0739  160.8961 C.3     1  UNL1        0.0680
      3 C         139.7955  140.1807  162.2392 C.3     1  UNL1        0.0973
      4 N         138.8727  141.3263  162.5328 N.am    1  UNL1       -0.2762
      5 C         138.2135  141.4330  163.8758 C.2     1  UNL1        0.2301
      6 O         137.2906  142.5786  164.1695 O.2     1  UNL1       -0.2745
      7 C         138.6092  142.3650  161.4832 C.3     1  UNL1        0.1323
      8 C         139.2685  142.2583  160.1401 C.3     1  UNL1        0.2202
      9 F         139.0049  143.2970  159.0906 F       1  UNL1       -0.2316
     10 O         140.8505  141.0059  158.5034 O.3     1  UNL1       -0.4609
     11 C         141.6098  136.9604  156.6849 C.ar    1  UNL1        0.0387
     12 C         140.2043  137.4602  156.8420 C.ar    1  UNL1        0.1036
     13 N         139.9512  138.8087  157.4482 N.ar    1  UNL1       -0.2100
     14 C         141.1037  139.6574  157.8972 C.ar    1  UNL1        0.2292
     15 C         142.5091  139.1576  157.7400 C.ar    1  UNL1        0.1062
     16 C         142.7622  137.8091  157.1339 C.ar    1  UNL1        0.0123
     17 C         143.7620  132.2584  155.6169 C.3     1  UNL1        0.1321
     18 N         142.8521  133.4506  155.5878 N.ar    1  UNL1       -0.3059
     19 C         141.6525  133.6228  154.7038 C.ar    1  UNL1        0.1786
     20 N         141.0411  134.9585  155.0072 N.ar    1  UNL1       -0.2238
     21 C         141.8629  135.6119  156.0787 C.ar    1  UNL1        0.1017
     22 C         142.9821  134.6799  156.4374 C.ar    1  UNL1        0.0965
     23 C         143.6616  140.0063  158.1891 C.2     1  UNL1        0.2473
     24 N         143.7134  140.5156  159.5990 N.am    1  UNL1       -0.3252
     25 O         144.7622  140.3457  157.2282 O.2     1  UNL1       -0.2702
     26 H         142.9910  140.2928  160.2297 H       1  UNL1        0.1453
     27 H         144.4698  141.0726  159.8936 H       1  UNL1        0.1453
     28 C         138.4770  140.3943  164.9254 C.3     1  UNL1        0.1116
     29 C         139.2539  140.7531  166.1574 C.ar    1  UNL1       -0.0129
     30 C         140.0510  142.0231  166.1979 C.ar    1  UNL1       -0.0007
     31 C         140.8279  142.3819  167.4298 C.ar    1  UNL1        0.0369
     32 C         140.8077  141.4708  168.6211 C.ar    1  UNL1        0.1468
     33 C         140.0105  140.2008  168.5806 C.ar    1  UNL1        0.0369
     34 C         139.2336  139.8419  167.3487 C.ar    1  UNL1       -0.0007
     35 O         141.5846  141.8296  169.8531 O.3     1  UNL1       -0.4045
     36 C         143.0389  142.1815  169.7467 C.3     1  UNL1        0.5753
     37 F         144.4931  142.5334  169.6403 F       1  UNL1       -0.1328
     38 F         143.3227  140.8308  169.1592 F       1  UNL1       -0.1328
     39 F         142.7550  143.5322  170.3341 F       1  UNL1       -0.1328
@<TRIPOS>BOND
     1    17    18    1
     2    18    19   ar
     3    19    20   ar
     4    20    21   ar
     5    21    11    1
     6    11    12   ar
     7    12    13   ar
     8    13    14   ar
     9    14    10    1
    10     1    10    1
    11     1     2    1
    12     2     3    1
    13     3     4    1
    14     4     5   am
    15     5     6    2
    16     5    28    1
    17    28    29    1
    18    29    30   ar
    19    30    31   ar
    20    31    32   ar
    21    32    35    1
    22    35    36    1
    23    36    37    1
    24    36    38    1
    25    36    39    1
    26    32    33   ar
    27    33    34   ar
    28     4     7    1
    29     7     8    1
    30     8     9    1
    31    14    15   ar
    32    15    23    1
    33    23    24   am
    34    23    25    2
    35    15    16   ar
    36    21    22   ar
    37    22    18   ar
    38    16    11   ar
    39     8     1    1
    40    34    29   ar
    41    24    26    1
    42    24    27    1
@<TRIPOS>MOLECULE
*****
 39 42 0 0 0
SMALL
GASTEIGER

@<TRIPOS>ATOM
      1 C         139.6860  140.8490  158.0342 C.3     1  UNL1        0.2032
      2 C         139.1828  139.8850  159.0674 C.3     1  UNL1        0.0680
      3 C         138.6042  140.3979  160.3528 C.3     1  UNL1        0.0973
      4 N         138.5289  141.8746  160.6050 N.am    1  UNL1       -0.2762
      5 C         137.9504  142.3874  161.8904 C.2     1  UNL1        0.2301
      6 O         137.8750  143.8642  162.1426 O.2     1  UNL1       -0.2745
      7 C         139.0322  142.8385  159.5717 C.3     1  UNL1        0.1323
      8 C         139.6107  142.3257  158.2864 C.3     1  UNL1        0.2202
      9 F         140.1140  143.2896  157.2531 F       1  UNL1       -0.2316
     10 O         140.2646  140.3362  156.7488 O.3     1  UNL1       -0.4609
     11 C         142.0354  136.2032  156.5690 C.ar    1  UNL1        0.0387
     12 C         142.7115  137.2744  157.3723 C.ar    1  UNL1        0.1036
     13 N         142.1212  138.6521  157.4322 N.ar    1  UNL1       -0.2100
     14 C         140.8549  138.9584  156.6888 C.ar    1  UNL1        0.2292
     15 C         140.1788  137.8872  155.8855 C.ar    1  UNL1        0.1062
     16 C         140.7691  136.5095  155.8256 C.ar    1  UNL1        0.0123
     17 C         144.9077  131.9172  157.6923 C.3     1  UNL1        0.1321
     18 N         143.9459  132.8554  157.0254 N.ar    1  UNL1       -0.3059
     19 C         143.1221  132.5554  155.8082 C.ar    1  UNL1        0.1786
     20 N         142.3062  133.7730  155.4892 N.ar    1  UNL1       -0.2238
     21 C         142.6257  134.8254  156.5091 C.ar    1  UNL1        0.1017
     22 C         143.6391  134.2584  157.4585 C.ar    1  UNL1        0.0965
     23 C         138.9125  138.1935  155.1422 C.2     1  UNL1        0.2473
     24 N         138.8383  139.3984  154.2518 N.am    1  UNL1       -0.3252
     25 O         137.7205  137.2950  155.2891 O.2     1  UNL1       -0.2702
     26 H         139.6207  139.9881  154.1553 H       1  UNL1        0.1453
     27 H         138.0072  139.5994  153.7639 H       1  UNL1        0.1453
     28 C         137.4471  141.4235  162.9236 C.3     1  UNL1        0.1116
     29 C         138.1963  141.2451  164.2109 C.ar    1  UNL1       -0.0129
     30 C         139.0085  142.3760  164.7689 C.ar    1  UNL1       -0.0007
     31 C         139.7576  142.1977  166.0561 C.ar    1  UNL1        0.0369
     32 C         139.6945  140.8884  166.7853 C.ar    1  UNL1        0.1468
     33 C         138.8823  139.7575  166.2274 C.ar    1  UNL1        0.0369
     34 C         138.1332  139.9358  164.9402 C.ar    1  UNL1       -0.0007
     35 O         140.4437  140.7100  168.0726 O.3     1  UNL1       -0.4045
     36 C         140.0023  141.4425  169.3049 C.3     1  UNL1        0.5753
     37 F         139.5609  142.1750  170.5372 F       1  UNL1       -0.1328
     38 F         141.1371  142.4089  169.1370 F       1  UNL1       -0.1328
     39 F         138.8674  140.4762  169.4729 F       1  UNL1       -0.1328
@<TRIPOS>BOND
     1    17    18    1
     2    18    19   ar
     3    19    20   ar
     4    20    21   ar
     5    21    11    1
     6    11    12   ar
     7    12    13   ar
     8    13    14   ar
     9    14    10    1
    10     1    10    1
    11     1     2    1
    12     2     3    1
    13     3     4    1
    14     4     5   am
    15     5     6    2
    16     5    28    1
    17    28    29    1
    18    29    30   ar
    19    30    31   ar
    20    31    32   ar
    21    32    35    1
    22    35    36    1
    23    36    37    1
    24    36    38    1
    25    36    39    1
    26    32    33   ar
    27    33    34   ar
    28     4     7    1
    29     7     8    1
    30     8     9    1
    31    14    15   ar
    32    15    23    1
    33    23    24   am
    34    23    25    2
    35    15    16   ar
    36    21    22   ar
    37    22    18   ar
    38    16    11   ar
    39     8     1    1
    40    34    29   ar
    41    24    26    1
    42    24    27    1
@<TRIPOS>MOLECULE
*****
 39 42 0 0 0
SMALL
GASTEIGER

@<TRIPOS>ATOM
      1 C         138.0827  139.6729  159.9247 C.3     1  UNL1        0.2032
      2 C         137.3785  140.3740  161.0483 C.3     1  UNL1        0.0680
      3 C         137.7574  140.0811  162.4698 C.3     1  UNL1        0.0973
      4 N         138.8406  139.0871  162.7676 N.am    1  UNL1       -0.2762
      5 C         139.2195  138.7942  164.1891 C.2     1  UNL1        0.2301
      6 O         140.3026  137.8001  164.4870 O.2     1  UNL1       -0.2745
      7 C         139.5448  138.3860  161.6440 C.3     1  UNL1        0.1323
      8 C         139.1659  138.6789  160.2226 C.3     1  UNL1        0.2202
      9 F         139.8701  137.9778  159.0989 F       1  UNL1       -0.2316
     10 O         137.7038  139.9658  158.5032 O.3     1  UNL1       -0.4609
     11 C         139.0741  143.7812  156.5499 C.ar    1  UNL1        0.0387
     12 C         139.7555  143.2877  157.7917 C.ar    1  UNL1        0.1036
     13 N         139.2987  142.0159  158.4428 N.ar    1  UNL1       -0.2100
     14 C         138.1606  141.2377  157.8521 C.ar    1  UNL1        0.2292
     15 C         137.4792  141.7312  156.6103 C.ar    1  UNL1        0.1062
     16 C         137.9360  143.0029  155.9592 C.ar    1  UNL1        0.0123
     17 C         140.9908  147.2086  153.0200 C.3     1  UNL1        0.1321
     18 N         140.4118  146.6284  154.2763 N.ar    1  UNL1       -0.3059
     19 C         140.0556  147.3918  155.5175 C.ar    1  UNL1        0.1786
     20 N         139.5111  146.4181  156.5202 N.ar    1  UNL1       -0.2238
     21 C         139.5309  145.0530  155.8988 C.ar    1  UNL1        0.1017
     22 C         140.0875  145.1830  154.5120 C.ar    1  UNL1        0.0965
     23 C         136.3411  140.9529  156.0195 C.2     1  UNL1        0.2473
     24 N         135.3491  140.2759  156.9182 N.am    1  UNL1       -0.3252
     25 O         136.1948  140.8517  154.5301 O.2     1  UNL1       -0.2702
     26 H         135.4451  140.3423  157.8957 H       1  UNL1        0.1453
     27 H         134.6021  139.7651  156.5305 H       1  UNL1        0.1453
     28 C         138.5152  139.4953  165.3127 C.3     1  UNL1        0.1116
     29 C         139.2944  140.3462  166.2713 C.ar    1  UNL1       -0.0129
     30 C         139.4898  139.8935  167.6880 C.ar    1  UNL1       -0.0007
     31 C         140.2689  140.7444  168.6466 C.ar    1  UNL1        0.0369
     32 C         140.8527  142.0480  168.1885 C.ar    1  UNL1        0.1468
     33 C         140.6573  142.5006  166.7718 C.ar    1  UNL1        0.0369
     34 C         139.8782  141.6498  165.8133 C.ar    1  UNL1       -0.0007
     35 O         141.6318  142.8989  169.1471 O.3     1  UNL1       -0.4045
     36 C         142.9927  142.4621  169.6023 C.3     1  UNL1        0.5753
     37 F         144.3535  142.0252  170.0576 F       1  UNL1       -0.1328
     38 F         143.5391  142.7369  168.2327 F       1  UNL1       -0.1328
     39 F         142.4463  142.1872  170.9720 F       1  UNL1       -0.1328
@<TRIPOS>BOND
     1    17    18    1
     2    18    19   ar
     3    19    20   ar
     4    20    21   ar
     5    21    11    1
     6    11    12   ar
     7    12    13   ar
     8    13    14   ar
     9    14    10    1
    10     1    10    1
    11     1     2    1
    12     2     3    1
    13     3     4    1
    14     4     5   am
    15     5     6    2
    16     5    28    1
    17    28    29    1
    18    29    30   ar
    19    30    31   ar
    20    31    32   ar
    21    32    35    1
    22    35    36    1
    23    36    37    1
    24    36    38    1
    25    36    39    1
    26    32    33   ar
    27    33    34   ar
    28     4     7    1
    29     7     8    1
    30     8     9    1
    31    14    15   ar
    32    15    23    1
    33    23    24   am
    34    23    25    2
    35    15    16   ar
    36    21    22   ar
    37    22    18   ar
    38    16    11   ar
    39     8     1    1
    40    34    29   ar
    41    24    26    1
    42    24    27    1
