@<TRIPOS>MOLECULE
*****
 23 24 0 0 0
SMALL
GASTEIGER

@<TRIPOS>ATOM
      1 C         138.8733  138.9584  164.5292 C.3     1  UNL1        0.0697
      2 C         138.5346  139.0488  165.9876 C.2     1  UNL1        0.1732
      3 O         137.4807  138.1542  166.5698 O.2     1  UNL1       -0.2913
      4 C         139.2500  140.0339  166.8640 C.ar    1  UNL1        0.0408
      5 C         139.9449  141.2146  166.2534 C.ar    1  UNL1        0.0032
      6 C         140.6602  142.1996  167.1298 C.ar    1  UNL1        0.0064
      7 C         140.6806  142.0039  168.6168 C.ar    1  UNL1        0.0753
      8 C         139.9856  140.8231  169.2275 C.ar    1  UNL1        0.2901
      9 C         139.2704  139.8382  168.3511 C.ar    1  UNL1        0.0781
     10 N         140.0060  140.6274  170.7145 N.pl3   1  UNL1        0.0809
     11 O         140.6066  141.6777  171.6011 O.2     1  UNL1        0.0415
     12 O         139.4259  139.3813  171.3150 O.co2   1  UNL1       -0.5760
     13 C         139.7512  137.8491  164.0304 C.3     1  UNL1        0.0177
     14 C         140.9959  137.4818  164.7826 C.3     1  UNL1        0.0855
     15 O         142.9215  138.5150  166.1877 O.2     1  UNL1       -0.2751
     16 C         142.1055  138.4803  164.9296 C.2     1  UNL1        0.2224
     17 N         142.3992  139.4442  163.8183 N.am    1  UNL1       -0.3060
     18 H         141.8636  139.4214  162.9925 H       1  UNL1        0.1494
     19 C         143.5088  140.4427  163.9652 C.3     1  UNL1        0.0716
     20 C         143.4125  141.7734  164.6508 C.3     1  UNL1        0.0196
     21 C         144.7538  142.4390  164.5616 C.3     1  UNL1        0.0017
     22 C         145.6791  141.5196  163.8210 C.3     1  UNL1        0.0017
     23 C         144.9097  140.2858  163.4524 C.3     1  UNL1        0.0196
@<TRIPOS>UNITY_ATOM_ATTR
10 1
charge 1
12 1
charge -1
@<TRIPOS>BOND
     1    15    16    2
     2    16    14    1
     3    14    13    1
     4    13     1    1
     5     1     2    1
     6     2     3    2
     7     2     4    1
     8     4     5   ar
     9     5     6   ar
    10     6     7   ar
    11     7     8   ar
    12     8    10    1
    13    10    11    2
    14    10    12    1
    15     8     9   ar
    16    16    17   am
    17    17    19    1
    18    19    20    1
    19    20    21    1
    20    21    22    1
    21    22    23    1
    22     9     4   ar
    23    23    19    1
    24    17    18    1
@<TRIPOS>MOLECULE
*****
 23 24 0 0 0
SMALL
GASTEIGER

@<TRIPOS>ATOM
      1 C         142.5308  138.7261  165.2804 C.3     1  UNL1        0.0697
      2 C         143.0151  138.8628  166.6935 C.2     1  UNL1        0.1732
      3 O         143.9588  137.8464  167.2645 O.2     1  UNL1       -0.2913
      4 C         142.5555  140.0160  167.5356 C.ar    1  UNL1        0.0408
      5 C         142.8800  141.4215  167.1239 C.ar    1  UNL1        0.0032
      6 C         142.4205  142.5746  167.9660 C.ar    1  UNL1        0.0064
      7 C         141.6365  142.3223  169.2196 C.ar    1  UNL1        0.0753
      8 C         141.3120  140.9169  169.6313 C.ar    1  UNL1        0.2901
      9 C         141.7715  139.7638  168.7892 C.ar    1  UNL1        0.0781
     10 N         140.5280  140.6646  170.8849 N.pl3   1  UNL1        0.0809
     11 O         140.6773  141.5840  172.0607 O.2     1  UNL1        0.0415
     12 O         139.5947  139.4930  170.9629 O.co2   1  UNL1       -0.5760
     13 C         141.5053  137.6868  164.9363 C.3     1  UNL1        0.0177
     14 C         140.0533  138.0578  164.8736 C.3     1  UNL1        0.0855
     15 O         139.1627  139.7866  166.5964 O.2     1  UNL1       -0.2751
     16 C         139.6211  139.4549  165.2072 C.2     1  UNL1        0.2224
     17 N         139.6474  140.5203  164.1516 N.am    1  UNL1       -0.3060
     18 H         139.9483  140.3027  163.2399 H       1  UNL1        0.1494
     19 C         139.2152  141.9174  164.4853 C.3     1  UNL1        0.0716
     20 C         140.0351  142.9452  165.2074 C.3     1  UNL1        0.0196
     21 C         139.2139  144.1951  165.3238 C.3     1  UNL1        0.0017
     22 C         137.8864  143.9397  164.6735 C.3     1  UNL1        0.0017
     23 C         137.8873  142.5320  164.1553 C.3     1  UNL1        0.0196
@<TRIPOS>UNITY_ATOM_ATTR
10 1
charge 1
12 1
charge -1
@<TRIPOS>BOND
     1    15    16    2
     2    16    14    1
     3    14    13    1
     4    13     1    1
     5     1     2    1
     6     2     3    2
     7     2     4    1
     8     4     5   ar
     9     5     6   ar
    10     6     7   ar
    11     7     8   ar
    12     8    10    1
    13    10    11    2
    14    10    12    1
    15     8     9   ar
    16    16    17   am
    17    17    19    1
    18    19    20    1
    19    20    21    1
    20    21    22    1
    21    22    23    1
    22     9     4   ar
    23    23    19    1
    24    17    18    1
@<TRIPOS>MOLECULE
*****
 23 24 0 0 0
SMALL
GASTEIGER

@<TRIPOS>ATOM
      1 C         138.6448  137.7766  165.4582 C.3     1  UNL1        0.0697
      2 C         138.5161  138.9730  166.3537 C.2     1  UNL1        0.1732
      3 O         138.0318  138.8060  167.7635 O.2     1  UNL1       -0.2913
      4 C         138.8719  140.3365  165.8394 C.ar    1  UNL1        0.0408
      5 C         139.9143  141.1547  166.5422 C.ar    1  UNL1        0.0032
      6 C         140.2700  142.5181  166.0279 C.ar    1  UNL1        0.0064
      7 C         139.5833  143.0633  164.8108 C.ar    1  UNL1        0.0753
      8 C         138.5409  142.2451  164.1080 C.ar    1  UNL1        0.2901
      9 C         138.1852  140.8817  164.6223 C.ar    1  UNL1        0.0781
     10 N         137.8543  142.7903  162.8910 N.pl3   1  UNL1        0.0809
     11 O         137.6256  144.2667  162.7570 O.2     1  UNL1        0.0415
     12 O         137.3963  141.8591  161.8079 O.co2   1  UNL1       -0.5760
     13 C         139.6822  137.7586  164.3749 C.3     1  UNL1        0.0177
     14 C         141.1341  137.6293  164.7290 C.3     1  UNL1        0.0855
     15 O         142.3188  138.9045  162.8002 O.2     1  UNL1       -0.2751
     16 C         142.1139  138.6668  164.2670 C.2     1  UNL1        0.2224
     17 N         142.8889  139.4667  165.2719 N.am    1  UNL1       -0.3060
     18 H         142.7545  139.3107  166.2346 H       1  UNL1        0.1494
     19 C         143.8688  140.5042  164.8099 C.3     1  UNL1        0.0716
     20 C         143.7379  141.9865  164.9987 C.3     1  UNL1        0.0196
     21 C         144.9398  142.6400  164.3835 C.3     1  UNL1        0.0017
     22 C         145.8134  141.5615  163.8146 C.3     1  UNL1        0.0017
     23 C         145.1515  140.2415  164.0781 C.3     1  UNL1        0.0196
@<TRIPOS>UNITY_ATOM_ATTR
10 1
charge 1
12 1
charge -1
@<TRIPOS>BOND
     1    15    16    2
     2    16    14    1
     3    14    13    1
     4    13     1    1
     5     1     2    1
     6     2     3    2
     7     2     4    1
     8     4     5   ar
     9     5     6   ar
    10     6     7   ar
    11     7     8   ar
    12     8    10    1
    13    10    11    2
    14    10    12    1
    15     8     9   ar
    16    16    17   am
    17    17    19    1
    18    19    20    1
    19    20    21    1
    20    21    22    1
    21    22    23    1
    22     9     4   ar
    23    23    19    1
    24    17    18    1
@<TRIPOS>MOLECULE
*****
 23 24 0 0 0
SMALL
GASTEIGER

@<TRIPOS>ATOM
      1 C         145.0170  142.6243  164.3050 C.3     1  UNL1        0.0697
      2 C         144.0789  143.5059  163.5351 C.2     1  UNL1        0.1732
      3 O         144.5785  144.2798  162.3512 O.2     1  UNL1       -0.2913
      4 C         142.6411  143.6136  163.9490 C.ar    1  UNL1        0.0408
      5 C         142.1737  142.9571  165.2141 C.ar    1  UNL1        0.0032
      6 C         140.7360  143.0648  165.6280 C.ar    1  UNL1        0.0064
      7 C         139.7657  143.8292  164.7768 C.ar    1  UNL1        0.0753
      8 C         140.2332  144.4857  163.5118 C.ar    1  UNL1        0.2901
      9 C         141.6709  144.3780  163.0979 C.ar    1  UNL1        0.0781
     10 N         139.2630  145.2501  162.6606 N.pl3   1  UNL1        0.0809
     11 O         137.8296  144.8152  162.5824 O.2     1  UNL1        0.0415
     12 O         139.7262  146.4493  161.8878 O.co2   1  UNL1       -0.5760
     13 C         145.5452  141.3662  163.6820 C.3     1  UNL1        0.0177
     14 C         145.0638  140.0304  164.1656 C.3     1  UNL1        0.0855
     15 O         142.7307  140.1940  163.0344 O.2     1  UNL1       -0.2751
     16 C         143.5973  139.7152  164.1612 C.2     1  UNL1        0.2224
     17 N         142.9975  138.9212  165.2837 N.am    1  UNL1       -0.3060
     18 H         143.5663  138.6070  166.0232 H       1  UNL1        0.1494
     19 C         141.5310  138.6060  165.2793 C.3     1  UNL1        0.0716
     20 C         140.8850  137.4247  164.6179 C.3     1  UNL1        0.0196
     21 C         139.4078  137.5054  164.8653 C.3     1  UNL1        0.0017
     22 C         139.1408  138.7365  165.6796 C.3     1  UNL1        0.0017
     23 C         140.4530  139.4167  165.9354 C.3     1  UNL1        0.0196
@<TRIPOS>UNITY_ATOM_ATTR
10 1
charge 1
12 1
charge -1
@<TRIPOS>BOND
     1    15    16    2
     2    16    14    1
     3    14    13    1
     4    13     1    1
     5     1     2    1
     6     2     3    2
     7     2     4    1
     8     4     5   ar
     9     5     6   ar
    10     6     7   ar
    11     7     8   ar
    12     8    10    1
    13    10    11    2
    14    10    12    1
    15     8     9   ar
    16    16    17   am
    17    17    19    1
    18    19    20    1
    19    20    21    1
    20    21    22    1
    21    22    23    1
    22     9     4   ar
    23    23    19    1
    24    17    18    1
@<TRIPOS>MOLECULE
*****
 23 24 0 0 0
SMALL
GASTEIGER

@<TRIPOS>ATOM
      1 C         141.8232  137.6546  164.9467 C.3     1  UNL1        0.0697
      2 C         142.7268  138.7871  164.5581 C.2     1  UNL1        0.1732
      3 O         143.4934  138.7270  163.2702 O.2     1  UNL1       -0.2913
      4 C         142.8637  139.9798  165.4575 C.ar    1  UNL1        0.0408
      5 C         142.3174  139.9330  166.8537 C.ar    1  UNL1        0.0032
      6 C         142.4544  141.1256  167.7530 C.ar    1  UNL1        0.0064
      7 C         143.1377  142.3651  167.2561 C.ar    1  UNL1        0.0753
      8 C         143.6840  142.4119  165.8600 C.ar    1  UNL1        0.2901
      9 C         143.5470  141.2192  164.9607 C.ar    1  UNL1        0.0781
     10 N         144.3673  143.6513  165.3631 N.pl3   1  UNL1        0.0809
     11 O         144.0259  144.2055  164.0118 O.2     1  UNL1        0.0415
     12 O         145.3921  144.3366  166.2177 O.co2   1  UNL1       -0.5760
     13 C         140.5738  137.3883  164.1605 C.3     1  UNL1        0.0177
     14 C         139.2419  137.8176  164.7007 C.3     1  UNL1        0.0855
     15 O         138.5806  139.5773  166.4941 O.2     1  UNL1       -0.2751
     16 C         139.0192  139.2467  165.0982 C.2     1  UNL1        0.2224
     17 N         139.2352  140.3453  164.0999 N.am    1  UNL1       -0.3060
     18 H         139.5230  140.1283  163.1838 H       1  UNL1        0.1494
     19 C         139.0124  141.7744  164.4975 C.3     1  UNL1        0.0716
     20 C         139.9712  142.6358  165.2648 C.3     1  UNL1        0.0196
     21 C         139.3432  143.9868  165.4391 C.3     1  UNL1        0.0017
     22 C         137.9962  143.9603  164.7794 C.3     1  UNL1        0.0017
     23 C         137.7919  142.5930  164.1975 C.3     1  UNL1        0.0196
@<TRIPOS>UNITY_ATOM_ATTR
10 1
charge 1
12 1
charge -1
@<TRIPOS>BOND
     1    15    16    2
     2    16    14    1
     3    14    13    1
     4    13     1    1
     5     1     2    1
     6     2     3    2
     7     2     4    1
     8     4     5   ar
     9     5     6   ar
    10     6     7   ar
    11     7     8   ar
    12     8    10    1
    13    10    11    2
    14    10    12    1
    15     8     9   ar
    16    16    17   am
    17    17    19    1
    18    19    20    1
    19    20    21    1
    20    21    22    1
    21    22    23    1
    22     9     4   ar
    23    23    19    1
    24    17    18    1
@<TRIPOS>MOLECULE
*****
 23 24 0 0 0
SMALL
GASTEIGER

@<TRIPOS>ATOM
      1 C         143.7573  144.3992  164.1109 C.3     1  UNL1        0.0697
      2 C         142.8064  144.2419  162.9616 C.2     1  UNL1        0.1732
      3 O         143.3308  144.1768  161.5578 O.2     1  UNL1       -0.2913
      4 C         141.3310  144.1495  163.2162 C.ar    1  UNL1        0.0408
      5 C         140.7355  144.8099  164.4241 C.ar    1  UNL1        0.0032
      6 C         139.2602  144.7175  164.6786 C.ar    1  UNL1        0.0064
      7 C         138.3803  143.9648  163.7251 C.ar    1  UNL1        0.0753
      8 C         138.9758  143.3043  162.5172 C.ar    1  UNL1        0.2901
      9 C         140.4511  143.3967  162.2627 C.ar    1  UNL1        0.0781
     10 N         138.0959  142.5516  161.5637 N.pl3   1  UNL1        0.0809
     11 O         138.0880  142.9109  160.1074 O.2     1  UNL1        0.0415
     12 O         137.2240  141.4395  162.0664 O.co2   1  UNL1       -0.5760
     13 C         144.2672  143.1878  164.8339 C.3     1  UNL1        0.0177
     14 C         143.5484  142.6819  166.0493 C.3     1  UNL1        0.0855
     15 O         142.6199  140.4693  165.0532 O.2     1  UNL1       -0.2751
     16 C         142.4315  141.6916  165.9022 C.2     1  UNL1        0.2224
     17 N         141.1262  141.9234  166.6040 N.am    1  UNL1       -0.3060
     18 H         141.0026  142.7255  167.1612 H       1  UNL1        0.1494
     19 C         140.0093  140.9330  166.4569 C.3     1  UNL1        0.0716
     20 C         139.1311  140.7670  165.2522 C.3     1  UNL1        0.0196
     21 C         138.1535  139.6661  165.5394 C.3     1  UNL1        0.0017
     22 C         138.4276  139.1518  166.9216 C.3     1  UNL1        0.0017
     23 C         139.5745  139.9348  167.4886 C.3     1  UNL1        0.0196
@<TRIPOS>UNITY_ATOM_ATTR
10 1
charge 1
12 1
charge -1
@<TRIPOS>BOND
     1    15    16    2
     2    16    14    1
     3    14    13    1
     4    13     1    1
     5     1     2    1
     6     2     3    2
     7     2     4    1
     8     4     5   ar
     9     5     6   ar
    10     6     7   ar
    11     7     8   ar
    12     8    10    1
    13    10    11    2
    14    10    12    1
    15     8     9   ar
    16    16    17   am
    17    17    19    1
    18    19    20    1
    19    20    21    1
    20    21    22    1
    21    22    23    1
    22     9     4   ar
    23    23    19    1
    24    17    18    1
@<TRIPOS>MOLECULE
*****
 23 24 0 0 0
SMALL
GASTEIGER

@<TRIPOS>ATOM
      1 C         138.7532  137.3776  165.4659 C.3     1  UNL1        0.0697
      2 C         138.2934  138.5044  166.3428 C.2     1  UNL1        0.1732
      3 O         137.0412  138.3593  167.1557 O.2     1  UNL1       -0.2913
      4 C         139.0859  139.7764  166.4068 C.ar    1  UNL1        0.0408
      5 C         138.7294  140.9279  165.5141 C.ar    1  UNL1        0.0032
      6 C         139.5219  142.1998  165.5781 C.ar    1  UNL1        0.0064
      7 C         140.6709  142.3202  166.5348 C.ar    1  UNL1        0.0753
      8 C         141.0274  141.1688  167.4275 C.ar    1  UNL1        0.2901
      9 C         140.2349  139.8968  167.3635 C.ar    1  UNL1        0.0781
     10 N         142.1764  141.2892  168.3843 N.pl3   1  UNL1        0.0809
     11 O         142.5388  142.6276  168.9564 O.2     1  UNL1        0.0415
     12 O         142.9629  140.0713  168.7688 O.co2   1  UNL1       -0.5760
     13 C         139.6192  137.6600  164.2741 C.3     1  UNL1        0.0177
     14 C         141.1128  137.6146  164.4046 C.3     1  UNL1        0.0855
     15 O         141.4509  139.8418  163.1103 O.2     1  UNL1       -0.2751
     16 C         141.9280  138.8413  164.1210 C.2     1  UNL1        0.2224
     17 N         143.2204  139.0676  164.8480 N.am    1  UNL1       -0.3060
     18 H         143.5336  138.4110  165.5114 H       1  UNL1        0.1494
     19 C         144.0357  140.2943  164.5644 C.3     1  UNL1        0.0716
     20 C         145.2260  140.3711  163.6548 C.3     1  UNL1        0.0196
     21 C         145.7298  141.7839  163.6688 C.3     1  UNL1        0.0017
     22 C         144.8507  142.5803  164.5870 C.3     1  UNL1        0.0017
     23 C         143.8037  141.6597  165.1404 C.3     1  UNL1        0.0196
@<TRIPOS>UNITY_ATOM_ATTR
10 1
charge 1
12 1
charge -1
@<TRIPOS>BOND
     1    15    16    2
     2    16    14    1
     3    14    13    1
     4    13     1    1
     5     1     2    1
     6     2     3    2
     7     2     4    1
     8     4     5   ar
     9     5     6   ar
    10     6     7   ar
    11     7     8   ar
    12     8    10    1
    13    10    11    2
    14    10    12    1
    15     8     9   ar
    16    16    17   am
    17    17    19    1
    18    19    20    1
    19    20    21    1
    20    21    22    1
    21    22    23    1
    22     9     4   ar
    23    23    19    1
    24    17    18    1
@<TRIPOS>MOLECULE
*****
 23 24 0 0 0
SMALL
GASTEIGER

@<TRIPOS>ATOM
      1 C         138.5022  139.6064  165.3917 C.3     1  UNL1        0.0697
      2 C         139.8389  139.6466  166.0709 C.2     1  UNL1        0.1732
      3 O         141.0490  139.0934  165.3784 O.2     1  UNL1       -0.2913
      4 C         139.9657  140.2401  167.4427 C.ar    1  UNL1        0.0408
      5 C         138.9627  139.8971  168.5039 C.ar    1  UNL1        0.0032
      6 C         139.0895  140.4906  169.8756 C.ar    1  UNL1        0.0064
      7 C         140.2193  141.4271  170.1862 C.ar    1  UNL1        0.0753
      8 C         141.2224  141.7701  169.1250 C.ar    1  UNL1        0.2901
      9 C         141.0956  141.1766  167.7532 C.ar    1  UNL1        0.0781
     10 N         142.3522  142.7066  169.4355 N.pl3   1  UNL1        0.0809
     11 O         142.2232  143.6905  170.5602 O.2     1  UNL1        0.0415
     12 O         143.6110  142.6591  168.6212 O.co2   1  UNL1       -0.5760
     13 C         138.1641  140.6217  164.3405 C.3     1  UNL1        0.0177
     14 C         138.1047  142.0778  164.6956 C.3     1  UNL1        0.0855
     15 O         139.4207  144.0473  165.7628 O.2     1  UNL1       -0.2751
     16 C         139.3721  142.8673  164.8381 C.2     1  UNL1        0.2224
     17 N         140.5910  142.4767  164.0558 N.am    1  UNL1       -0.3060
     18 H         140.5591  141.7022  163.4489 H       1  UNL1        0.1494
     19 C         141.8584  143.2662  164.1983 C.3     1  UNL1        0.0716
     20 C         142.1174  144.6288  163.6270 C.3     1  UNL1        0.0196
     21 C         143.5084  145.0365  164.0127 C.3     1  UNL1        0.0017
     22 C         144.1092  143.9258  164.8224 C.3     1  UNL1        0.0017
     23 C         143.0894  142.8318  164.9371 C.3     1  UNL1        0.0196
@<TRIPOS>UNITY_ATOM_ATTR
10 1
charge 1
12 1
charge -1
@<TRIPOS>BOND
     1    15    16    2
     2    16    14    1
     3    14    13    1
     4    13     1    1
     5     1     2    1
     6     2     3    2
     7     2     4    1
     8     4     5   ar
     9     5     6   ar
    10     6     7   ar
    11     7     8   ar
    12     8    10    1
    13    10    11    2
    14    10    12    1
    15     8     9   ar
    16    16    17   am
    17    17    19    1
    18    19    20    1
    19    20    21    1
    20    21    22    1
    21    22    23    1
    22     9     4   ar
    23    23    19    1
    24    17    18    1
@<TRIPOS>MOLECULE
*****
 23 24 0 0 0
SMALL
GASTEIGER

@<TRIPOS>ATOM
      1 C         138.0012  142.8283  163.7157 C.3     1  UNL1        0.0697
      2 C         137.9211  141.5325  162.9644 C.2     1  UNL1        0.1732
      3 O         137.5403  141.5291  161.5135 O.2     1  UNL1       -0.2913
      4 C         138.2218  140.2401  163.6639 C.ar    1  UNL1        0.0408
      5 C         138.8233  139.0969  162.9015 C.ar    1  UNL1        0.0032
      6 C         139.1240  137.8045  163.6010 C.ar    1  UNL1        0.0064
      7 C         138.8231  137.6554  165.0629 C.ar    1  UNL1        0.0753
      8 C         138.2216  138.7985  165.8253 C.ar    1  UNL1        0.2901
      9 C         137.9210  140.0909  165.1258 C.ar    1  UNL1        0.0781
     10 N         137.9208  138.6493  167.2873 N.pl3   1  UNL1        0.0809
     11 O         138.7474  139.3825  168.3017 O.2     1  UNL1        0.0415
     12 O         136.7933  137.7670  167.7348 O.co2   1  UNL1       -0.5760
     13 C         138.8355  143.9547  163.1815 C.3     1  UNL1        0.0177
     14 C         140.2647  143.7122  162.7964 C.3     1  UNL1        0.0855
     15 O         141.5702  143.2567  164.9960 O.2     1  UNL1       -0.2751
     16 C         141.1249  142.8131  163.6340 C.2     1  UNL1        0.2224
     17 N         141.5400  141.4704  163.1096 N.am    1  UNL1       -0.3060
     18 H         141.2477  141.1792  162.2157 H       1  UNL1        0.1494
     19 C         142.4002  140.5713  163.9473 C.3     1  UNL1        0.0716
     20 C         143.8684  140.3291  163.7584 C.3     1  UNL1        0.0196
     21 C         144.3189  139.3647  164.8152 C.3     1  UNL1        0.0017
     22 C         143.1290  139.0107  165.6572 C.3     1  UNL1        0.0017
     23 C         141.9432  139.7565  165.1208 C.3     1  UNL1        0.0196
@<TRIPOS>UNITY_ATOM_ATTR
10 1
charge 1
12 1
charge -1
@<TRIPOS>BOND
     1    15    16    2
     2    16    14    1
     3    14    13    1
     4    13     1    1
     5     1     2    1
     6     2     3    2
     7     2     4    1
     8     4     5   ar
     9     5     6   ar
    10     6     7   ar
    11     7     8   ar
    12     8    10    1
    13    10    11    2
    14    10    12    1
    15     8     9   ar
    16    16    17   am
    17    17    19    1
    18    19    20    1
    19    20    21    1
    20    21    22    1
    21    22    23    1
    22     9     4   ar
    23    23    19    1
    24    17    18    1
