@<TRIPOS>MOLECULE
*****
 24 26 0 0 0
SMALL
GASTEIGER

@<TRIPOS>ATOM
      1 C         142.3188  139.3006  163.7293 C.ar    1  UNL1        0.1386
      2 C         142.6033  138.4291  164.9164 C.ar    1  UNL1        0.0369
      3 C         142.2942  138.9212  166.2993 C.ar    1  UNL1        0.0047
      4 C         141.7007  140.2848  166.4949 C.ar    1  UNL1        0.0195
      5 C         141.4162  141.1563  165.3078 C.ar    1  UNL1        0.0047
      6 C         141.7252  140.6642  163.9249 C.ar    1  UNL1        0.0369
      7 C         141.3916  140.7768  167.8779 C.ar    1  UNL1        0.1011
      8 C         140.1445  140.3203  168.5751 C.ar    1  UNL1        0.0258
      9 C         139.8355  140.8123  169.9581 C.ar    1  UNL1        0.0638
     10 C         140.7736  141.7609  170.6437 C.ar    1  UNL1        0.2765
     11 O         140.4646  142.2530  172.0266 O.2     1  UNL1       -0.2655
     12 N         142.0208  142.2175  169.9463 N.ar    1  UNL1       -0.2146
     13 C         142.9589  143.1661  170.6319 C.3     1  UNL1        0.1571
     14 N         142.3298  141.7254  168.5635 N.ar    1  UNL1       -0.1668
     15 O         142.6278  138.8085  162.3463 O.3     1  UNL1       -0.4754
     16 C         141.6335  137.9576  161.6134 C.3     1  UNL1        0.2068
     17 C         140.2815  138.5100  161.2712 C.3     1  UNL1        0.0646
     18 C         139.0620  138.0016  161.9812 C.3     1  UNL1        0.0759
     19 C         137.8404  140.8797  162.9157 C.3     1  UNL1        0.0173
     20 C         138.2236  139.7482  163.8227 C.3     1  UNL1        0.0576
     21 C         138.1124  139.7409  165.3185 C.3     1  UNL1        0.0174
     22 C         138.6053  138.4134  165.8135 C.3     1  UNL1        0.0187
     23 C         139.0209  137.6003  164.6236 C.3     1  UNL1        0.0721
     24 N         138.7850  138.4252  163.3932 N.3     1  UNL1       -0.2738
@<TRIPOS>BOND
     1    20    19    1
     2    20    21    1
     3    21    22    1
     4    22    23    1
     5    23    24    1
     6    24    18    1
     7    18    17    1
     8    17    16    1
     9    16    15    1
    10    15     1    1
    11     1     2   ar
    12     2     3   ar
    13     3     4   ar
    14     4     7    1
    15     7     8   ar
    16     8     9   ar
    17     9    10   ar
    18    10    11    2
    19    10    12   ar
    20    12    13    1
    21    12    14   ar
    22     4     5   ar
    23     5     6   ar
    24    24    20    1
    25     6     1   ar
    26    14     7   ar
@<TRIPOS>MOLECULE
*****
 24 26 0 0 0
SMALL
GASTEIGER

@<TRIPOS>ATOM
      1 C         140.2503  138.0389  163.8830 C.ar    1  UNL1        0.1386
      2 C         138.9797  138.2936  164.6384 C.ar    1  UNL1        0.0369
      3 C         139.0225  138.9978  165.9621 C.ar    1  UNL1        0.0047
      4 C         140.3359  139.4472  166.5305 C.ar    1  UNL1        0.0195
      5 C         141.6065  139.1924  165.7750 C.ar    1  UNL1        0.0047
      6 C         141.5637  138.4883  164.4513 C.ar    1  UNL1        0.0369
      7 C         140.3787  140.1513  167.8543 C.ar    1  UNL1        0.1011
      8 C         139.2057  140.0694  168.7856 C.ar    1  UNL1        0.0258
      9 C         139.2485  140.7735  170.1094 C.ar    1  UNL1        0.0638
     10 C         140.4643  141.5596  170.5018 C.ar    1  UNL1        0.2765
     11 O         140.5071  142.2637  171.8256 O.2     1  UNL1       -0.2655
     12 N         141.6373  141.6415  169.5704 N.ar    1  UNL1       -0.2146
     13 C         142.8531  142.4276  169.9628 C.3     1  UNL1        0.1571
     14 N         141.5945  140.9374  168.2467 N.ar    1  UNL1       -0.1668
     15 O         140.2075  137.3348  162.5592 O.3     1  UNL1       -0.4754
     16 C         140.0094  138.1213  161.2974 C.3     1  UNL1        0.2068
     17 C         138.6936  138.7899  161.0291 C.3     1  UNL1        0.0646
     18 C         138.6026  140.2871  161.0136 C.3     1  UNL1        0.0759
     19 C         141.2223  141.5318  162.5093 C.3     1  UNL1        0.0173
     20 C         139.8050  141.6239  162.9915 C.3     1  UNL1        0.0576
     21 C         139.3429  142.3043  164.2458 C.3     1  UNL1        0.0174
     22 C         137.8531  142.1527  164.3336 C.3     1  UNL1        0.0187
     23 C         137.3945  141.3786  163.1335 C.3     1  UNL1        0.0721
     24 N         138.6008  141.0518  162.3040 N.3     1  UNL1       -0.2738
@<TRIPOS>BOND
     1    20    19    1
     2    20    21    1
     3    21    22    1
     4    22    23    1
     5    23    24    1
     6    24    18    1
     7    18    17    1
     8    17    16    1
     9    16    15    1
    10    15     1    1
    11     1     2   ar
    12     2     3   ar
    13     3     4   ar
    14     4     7    1
    15     7     8   ar
    16     8     9   ar
    17     9    10   ar
    18    10    11    2
    19    10    12   ar
    20    12    13    1
    21    12    14   ar
    22     4     5   ar
    23     5     6   ar
    24    24    20    1
    25     6     1   ar
    26    14     7   ar
@<TRIPOS>MOLECULE
*****
 24 26 0 0 0
SMALL
GASTEIGER

@<TRIPOS>ATOM
      1 C         143.3512  143.5764  164.0629 C.ar    1  UNL1        0.1386
      2 C         141.8622  143.4140  163.9827 C.ar    1  UNL1        0.0369
      3 C         141.1164  142.7680  165.1125 C.ar    1  UNL1        0.0047
      4 C         141.8596  142.2844  166.3224 C.ar    1  UNL1        0.0195
      5 C         143.3485  142.4468  166.4025 C.ar    1  UNL1        0.0047
      6 C         144.0944  143.0928  165.2728 C.ar    1  UNL1        0.0369
      7 C         141.1137  141.6383  167.4521 C.ar    1  UNL1        0.1011
      8 C         140.0581  140.6123  167.1643 C.ar    1  UNL1        0.0258
      9 C         139.3122  139.9662  168.2941 C.ar    1  UNL1        0.0638
     10 C         139.6219  140.3463  169.7117 C.ar    1  UNL1        0.2765
     11 O         138.8761  139.7003  170.8414 O.2     1  UNL1       -0.2655
     12 N         140.6776  141.3724  169.9995 N.ar    1  UNL1       -0.2146
     13 C         140.9873  141.7525  171.4171 C.3     1  UNL1        0.1571
     14 N         141.4234  142.0184  168.8698 N.ar    1  UNL1       -0.1668
     15 O         144.0971  144.2225  162.9331 O.3     1  UNL1       -0.4754
     16 C         144.5703  143.3938  161.7758 C.3     1  UNL1        0.2068
     17 C         145.1487  142.0308  162.0162 C.3     1  UNL1        0.0646
     18 C         144.2717  140.8173  161.9258 C.3     1  UNL1        0.0759
     19 C         141.2441  139.9339  162.7642 C.3     1  UNL1        0.0173
     20 C         142.4902  139.6731  163.5574 C.3     1  UNL1        0.0576
     21 C         142.5635  138.9605  164.8752 C.3     1  UNL1        0.0174
     22 C         144.0004  138.9261  165.3044 C.3     1  UNL1        0.0187
     23 C         144.8152  139.6175  164.2517 C.3     1  UNL1        0.0721
     24 N         143.8818  140.0792  163.1720 N.3     1  UNL1       -0.2738
@<TRIPOS>BOND
     1    20    19    1
     2    20    21    1
     3    21    22    1
     4    22    23    1
     5    23    24    1
     6    24    18    1
     7    18    17    1
     8    17    16    1
     9    16    15    1
    10    15     1    1
    11     1     2   ar
    12     2     3   ar
    13     3     4   ar
    14     4     7    1
    15     7     8   ar
    16     8     9   ar
    17     9    10   ar
    18    10    11    2
    19    10    12   ar
    20    12    13    1
    21    12    14   ar
    22     4     5   ar
    23     5     6   ar
    24    24    20    1
    25     6     1   ar
    26    14     7   ar
@<TRIPOS>MOLECULE
*****
 24 26 0 0 0
SMALL
GASTEIGER

@<TRIPOS>ATOM
      1 C         141.9004  138.3386  164.1199 C.ar    1  UNL1        0.1386
      2 C         140.5132  138.7786  164.4834 C.ar    1  UNL1        0.0369
      3 C         140.2595  139.4451  165.8030 C.ar    1  UNL1        0.0047
      4 C         141.3929  139.6716  166.7590 C.ar    1  UNL1        0.0195
      5 C         142.7801  139.2316  166.3955 C.ar    1  UNL1        0.0047
      6 C         143.0338  138.5651  165.0759 C.ar    1  UNL1        0.0369
      7 C         141.1391  140.3382  168.0787 C.ar    1  UNL1        0.1011
      8 C         139.8911  140.0249  168.8494 C.ar    1  UNL1        0.0258
      9 C         139.6373  140.6914  170.1691 C.ar    1  UNL1        0.0638
     10 C         140.6316  141.6713  170.7179 C.ar    1  UNL1        0.2765
     11 O         140.3779  142.3378  172.0374 O.2     1  UNL1       -0.2655
     12 N         141.8798  141.9845  169.9470 N.ar    1  UNL1       -0.2146
     13 C         142.8741  142.9644  170.4959 C.3     1  UNL1        0.1571
     14 N         142.1335  141.3180  168.6275 N.ar    1  UNL1       -0.1668
     15 O         142.1542  137.6721  162.8002 O.3     1  UNL1       -0.4754
     16 C         142.6782  138.4718  161.6445 C.3     1  UNL1        0.2068
     17 C         142.2986  139.9156  161.4980 C.3     1  UNL1        0.0646
     18 C         143.2863  140.9898  161.8449 C.3     1  UNL1        0.0759
     19 C         145.8089  141.5796  163.8293 C.3     1  UNL1        0.0173
     20 C         144.3769  141.9401  164.0926 C.3     1  UNL1        0.0576
     21 C         143.8530  142.6351  165.3143 C.3     1  UNL1        0.0174
     22 C         142.3697  142.7936  165.1572 C.3     1  UNL1        0.0187
     23 C         141.9769  142.1965  163.8385 C.3     1  UNL1        0.0721
     24 N         143.2174  141.6691  163.1805 N.3     1  UNL1       -0.2738
@<TRIPOS>BOND
     1    20    19    1
     2    20    21    1
     3    21    22    1
     4    22    23    1
     5    23    24    1
     6    24    18    1
     7    18    17    1
     8    17    16    1
     9    16    15    1
    10    15     1    1
    11     1     2   ar
    12     2     3   ar
    13     3     4   ar
    14     4     7    1
    15     7     8   ar
    16     8     9   ar
    17     9    10   ar
    18    10    11    2
    19    10    12   ar
    20    12    13    1
    21    12    14   ar
    22     4     5   ar
    23     5     6   ar
    24    24    20    1
    25     6     1   ar
    26    14     7   ar
@<TRIPOS>MOLECULE
*****
 24 26 0 0 0
SMALL
GASTEIGER

@<TRIPOS>ATOM
      1 C         142.2068  139.3095  163.3950 C.ar    1  UNL1        0.1386
      2 C         141.8312  140.7286  163.7032 C.ar    1  UNL1        0.0369
      3 C         141.7458  141.1893  165.1281 C.ar    1  UNL1        0.0047
      4 C         142.0360  140.2308  166.2449 C.ar    1  UNL1        0.0195
      5 C         142.4115  138.8117  165.9367 C.ar    1  UNL1        0.0047
      6 C         142.4969  138.3510  164.5118 C.ar    1  UNL1        0.0369
      7 C         141.9506  140.6915  167.6699 C.ar    1  UNL1        0.1011
      8 C         142.5431  139.8554  168.7652 C.ar    1  UNL1        0.0258
      9 C         142.4577  140.3162  170.1902 C.ar    1  UNL1        0.0638
     10 C         141.7797  141.6130  170.5198 C.ar    1  UNL1        0.2765
     11 O         141.6943  142.0737  171.9447 O.2     1  UNL1       -0.2655
     12 N         141.1871  142.4490  169.4243 N.ar    1  UNL1       -0.2146
     13 C         140.5091  143.7459  169.7539 C.3     1  UNL1        0.1571
     14 N         141.2726  141.9883  167.9995 N.ar    1  UNL1       -0.1668
     15 O         142.2922  138.8488  161.9700 O.3     1  UNL1       -0.4754
     16 C         141.2818  137.8786  161.4337 C.3     1  UNL1        0.2068
     17 C         139.8852  138.3380  161.1361 C.3     1  UNL1        0.0646
     18 C         138.7879  138.0945  162.1294 C.3     1  UNL1        0.0759
     19 C         138.9100  137.4671  165.3295 C.3     1  UNL1        0.0173
     20 C         138.5975  138.7934  164.7024 C.3     1  UNL1        0.0576
     21 C         138.2862  140.0641  165.4361 C.3     1  UNL1        0.0174
     22 C         138.0376  141.1379  164.4186 C.3     1  UNL1        0.0187
     23 C         138.1953  140.5308  163.0561 C.3     1  UNL1        0.0721
     24 N         138.5414  139.0818  163.2315 N.3     1  UNL1       -0.2738
@<TRIPOS>BOND
     1    20    19    1
     2    20    21    1
     3    21    22    1
     4    22    23    1
     5    23    24    1
     6    24    18    1
     7    18    17    1
     8    17    16    1
     9    16    15    1
    10    15     1    1
    11     1     2   ar
    12     2     3   ar
    13     3     4   ar
    14     4     7    1
    15     7     8   ar
    16     8     9   ar
    17     9    10   ar
    18    10    11    2
    19    10    12   ar
    20    12    13    1
    21    12    14   ar
    22     4     5   ar
    23     5     6   ar
    24    24    20    1
    25     6     1   ar
    26    14     7   ar
@<TRIPOS>MOLECULE
*****
 24 26 0 0 0
SMALL
GASTEIGER

@<TRIPOS>ATOM
      1 C         144.5027  141.7709  163.9765 C.ar    1  UNL1        0.1386
      2 C         144.6481  142.9831  164.8480 C.ar    1  UNL1        0.0369
      3 C         143.9883  143.0222  166.1945 C.ar    1  UNL1        0.0047
      4 C         143.1830  141.8492  166.6694 C.ar    1  UNL1        0.0195
      5 C         143.0375  140.6371  165.7979 C.ar    1  UNL1        0.0047
      6 C         143.6974  140.5979  164.4515 C.ar    1  UNL1        0.0369
      7 C         142.5231  141.8884  168.0160 C.ar    1  UNL1        0.1011
      8 C         143.1893  142.5979  169.1573 C.ar    1  UNL1        0.0258
      9 C         142.5295  142.6371  170.5039 C.ar    1  UNL1        0.0638
     10 C         141.2033  141.9668  170.7090 C.ar    1  UNL1        0.2765
     11 O         140.5435  142.0059  172.0554 O.2     1  UNL1       -0.2655
     12 N         140.5371  141.2572  169.5675 N.ar    1  UNL1       -0.2146
     13 C         139.2110  140.5869  169.7727 C.3     1  UNL1        0.1571
     14 N         141.1970  141.2181  168.2211 N.ar    1  UNL1       -0.1668
     15 O         145.1626  141.7317  162.6300 O.3     1  UNL1       -0.4754
     16 C         144.4146  142.1934  161.4145 C.3     1  UNL1        0.2068
     17 C         143.3918  143.2843  161.5326 C.3     1  UNL1        0.0646
     18 C         141.9334  142.9407  161.6016 C.3     1  UNL1        0.0759
     19 C         141.9376  145.3800  163.7692 C.3     1  UNL1        0.0173
     20 C         141.2249  144.0687  163.9189 C.3     1  UNL1        0.0576
     21 C         140.3889  143.6484  165.0914 C.3     1  UNL1        0.0174
     22 C         139.8703  142.2674  164.8196 C.3     1  UNL1        0.0187
     23 C         140.3857  141.8342  163.4792 C.3     1  UNL1        0.0721
     24 N         141.2229  142.9475  162.9226 N.3     1  UNL1       -0.2738
@<TRIPOS>BOND
     1    20    19    1
     2    20    21    1
     3    21    22    1
     4    22    23    1
     5    23    24    1
     6    24    18    1
     7    18    17    1
     8    17    16    1
     9    16    15    1
    10    15     1    1
    11     1     2   ar
    12     2     3   ar
    13     3     4   ar
    14     4     7    1
    15     7     8   ar
    16     8     9   ar
    17     9    10   ar
    18    10    11    2
    19    10    12   ar
    20    12    13    1
    21    12    14   ar
    22     4     5   ar
    23     5     6   ar
    24    24    20    1
    25     6     1   ar
    26    14     7   ar
@<TRIPOS>MOLECULE
*****
 24 26 0 0 0
SMALL
GASTEIGER

@<TRIPOS>ATOM
      1 C         139.8015  140.4568  163.2042 C.ar    1  UNL1        0.1386
      2 C         138.8241  139.8285  164.1527 C.ar    1  UNL1        0.0369
      3 C         138.9330  140.0918  165.6254 C.ar    1  UNL1        0.0047
      4 C         140.0194  140.9836  166.1495 C.ar    1  UNL1        0.0195
      5 C         140.9968  141.6120  165.2009 C.ar    1  UNL1        0.0047
      6 C         140.8878  141.3486  163.7283 C.ar    1  UNL1        0.0369
      7 C         140.1283  141.2469  167.6222 C.ar    1  UNL1        0.1011
      8 C         140.0937  140.1040  168.5930 C.ar    1  UNL1        0.0258
      9 C         140.2026  140.3674  170.0658 C.ar    1  UNL1        0.0638
     10 C         140.3461  141.7736  170.5676 C.ar    1  UNL1        0.2765
     11 O         140.4550  142.0370  172.0402 O.2     1  UNL1       -0.2655
     12 N         140.3807  142.9166  169.5967 N.ar    1  UNL1       -0.2146
     13 C         140.5241  144.3228  170.0985 C.3     1  UNL1        0.1571
     14 N         140.2718  142.6532  168.1240 N.ar    1  UNL1       -0.1668
     15 O         139.6926  140.1935  161.7315 O.3     1  UNL1       -0.4754
     16 C         140.2332  138.9184  161.1556 C.3     1  UNL1        0.2068
     17 C         141.7015  138.7832  160.8797 C.3     1  UNL1        0.0646
     18 C         142.5472  137.8913  161.7395 C.3     1  UNL1        0.0759
     19 C         140.9620  136.9389  164.4283 C.3     1  UNL1        0.0173
     20 C         142.1459  137.8587  164.3820 C.3     1  UNL1        0.0576
     21 C         142.8091  138.5023  165.5636 C.3     1  UNL1        0.0174
     22 C         143.9477  139.3378  165.0579 C.3     1  UNL1        0.0187
     23 C         143.9881  139.2106  163.5639 C.3     1  UNL1        0.0721
     24 N         142.8746  138.2965  163.1461 N.3     1  UNL1       -0.2738
@<TRIPOS>BOND
     1    20    19    1
     2    20    21    1
     3    21    22    1
     4    22    23    1
     5    23    24    1
     6    24    18    1
     7    18    17    1
     8    17    16    1
     9    16    15    1
    10    15     1    1
    11     1     2   ar
    12     2     3   ar
    13     3     4   ar
    14     4     7    1
    15     7     8   ar
    16     8     9   ar
    17     9    10   ar
    18    10    11    2
    19    10    12   ar
    20    12    13    1
    21    12    14   ar
    22     4     5   ar
    23     5     6   ar
    24    24    20    1
    25     6     1   ar
    26    14     7   ar
@<TRIPOS>MOLECULE
*****
 24 26 0 0 0
SMALL
GASTEIGER

@<TRIPOS>ATOM
      1 C         140.6726  144.8521  163.5284 C.ar    1  UNL1        0.1386
      2 C         141.8147  143.9895  163.9772 C.ar    1  UNL1        0.0369
      3 C         141.6562  143.0979  165.1730 C.ar    1  UNL1        0.0047
      4 C         140.3557  143.0689  165.9199 C.ar    1  UNL1        0.0195
      5 C         139.2136  143.9315  165.4710 C.ar    1  UNL1        0.0047
      6 C         139.3721  144.8231  164.2752 C.ar    1  UNL1        0.0369
      7 C         140.1973  142.1772  167.1157 C.ar    1  UNL1        0.1011
      8 C         139.7115  140.7688  166.9420 C.ar    1  UNL1        0.0258
      9 C         139.5531  139.8771  168.1378 C.ar    1  UNL1        0.0638
     10 C         139.8806  140.3940  169.5073 C.ar    1  UNL1        0.2765
     11 O         139.7222  139.5024  170.7031 O.2     1  UNL1       -0.2655
     12 N         140.3665  141.8025  169.6810 N.ar    1  UNL1       -0.2146
     13 C         140.6940  142.3193  171.0506 C.3     1  UNL1        0.1571
     14 N         140.5249  142.6941  168.4852 N.ar    1  UNL1       -0.1668
     15 O         140.8310  145.7438  162.3325 O.3     1  UNL1       -0.4754
     16 C         141.0282  145.1451  160.9714 C.3     1  UNL1        0.2068
     17 C         140.0115  144.1917  160.4169 C.3     1  UNL1        0.0646
     18 C         140.1187  142.7252  160.7128 C.3     1  UNL1        0.0759
     19 C         140.9963  140.3652  162.7888 C.3     1  UNL1        0.0173
     20 C         139.6494  141.0217  162.7185 C.3     1  UNL1        0.0576
     21 C         138.4695  140.7087  163.5901 C.3     1  UNL1        0.0174
     22 C         137.3368  141.6001  163.1745 C.3     1  UNL1        0.0187
     23 C         137.8168  142.4639  162.0461 C.3     1  UNL1        0.0721
     24 N         139.2460  142.1065  161.7642 N.3     1  UNL1       -0.2738
@<TRIPOS>BOND
     1    20    19    1
     2    20    21    1
     3    21    22    1
     4    22    23    1
     5    23    24    1
     6    24    18    1
     7    18    17    1
     8    17    16    1
     9    16    15    1
    10    15     1    1
    11     1     2   ar
    12     2     3   ar
    13     3     4   ar
    14     4     7    1
    15     7     8   ar
    16     8     9   ar
    17     9    10   ar
    18    10    11    2
    19    10    12   ar
    20    12    13    1
    21    12    14   ar
    22     4     5   ar
    23     5     6   ar
    24    24    20    1
    25     6     1   ar
    26    14     7   ar
@<TRIPOS>MOLECULE
*****
 24 26 0 0 0
SMALL
GASTEIGER

@<TRIPOS>ATOM
      1 C         139.5062  140.5226  163.1060 C.ar    1  UNL1        0.1386
      2 C         138.3335  140.4060  164.0339 C.ar    1  UNL1        0.0369
      3 C         138.5316  140.5463  165.5141 C.ar    1  UNL1        0.0047
      4 C         139.9024  140.8031  166.0663 C.ar    1  UNL1        0.0195
      5 C         141.0751  140.9197  165.1384 C.ar    1  UNL1        0.0047
      6 C         140.8770  140.7794  163.6582 C.ar    1  UNL1        0.0369
      7 C         140.1005  140.9434  167.5466 C.ar    1  UNL1        0.1011
      8 C         139.2788  140.1211  168.4945 C.ar    1  UNL1        0.0258
      9 C         139.4768  140.2614  169.9748 C.ar    1  UNL1        0.0638
     10 C         140.4967  141.2240  170.5071 C.ar    1  UNL1        0.2765
     11 O         140.6948  141.3642  171.9873 O.2     1  UNL1       -0.2655
     12 N         141.3184  142.0463  169.5591 N.ar    1  UNL1       -0.2146
     13 C         142.3383  143.0089  170.0914 C.3     1  UNL1        0.1571
     14 N         141.1203  141.9060  168.0789 N.ar    1  UNL1       -0.1668
     15 O         139.3081  140.3823  161.6257 O.3     1  UNL1       -0.4754
     16 C         138.2670  141.2057  160.9269 C.3     1  UNL1        0.2068
     17 C         138.6014  142.5867  160.4461 C.3     1  UNL1        0.0646
     18 C         139.4999  143.4680  161.2621 C.3     1  UNL1        0.0759
     19 C         141.5217  144.4648  163.6217 C.3     1  UNL1        0.0173
     20 C         140.0339  144.3153  163.7403 C.3     1  UNL1        0.0576
     21 C         139.2143  144.5977  164.9644 C.3     1  UNL1        0.0174
     22 C         137.7783  144.3140  164.6363 C.3     1  UNL1        0.0187
     23 C         137.7105  143.8563  163.2095 C.3     1  UNL1        0.0721
     24 N         139.1046  143.8571  162.6557 N.3     1  UNL1       -0.2738
@<TRIPOS>BOND
     1    20    19    1
     2    20    21    1
     3    21    22    1
     4    22    23    1
     5    23    24    1
     6    24    18    1
     7    18    17    1
     8    17    16    1
     9    16    15    1
    10    15     1    1
    11     1     2   ar
    12     2     3   ar
    13     3     4   ar
    14     4     7    1
    15     7     8   ar
    16     8     9   ar
    17     9    10   ar
    18    10    11    2
    19    10    12   ar
    20    12    13    1
    21    12    14   ar
    22     4     5   ar
    23     5     6   ar
    24    24    20    1
    25     6     1   ar
    26    14     7   ar
