@<TRIPOS>MOLECULE
*****
 33 36 0 0 0
SMALL
GASTEIGER

@<TRIPOS>ATOM
      1 N         139.8375  143.9145  160.9600 N.ar    1  UNL1       -0.3061
      2 C         140.9568  144.6596  161.6248 C.ar    1  UNL1        0.1252
      3 N         142.0877  144.7677  160.6453 N.ar    1  UNL1       -0.2306
      4 C         141.6674  144.0894  159.3752 C.ar    1  UNL1        0.0983
      5 C         142.3713  143.8837  158.0667 C.ar    1  UNL1        0.0206
      6 C         141.6845  143.1508  156.9527 C.ar    1  UNL1        0.0016
      7 C         140.2938  142.6235  157.1472 C.ar    1  UNL1        0.0016
      8 C         139.5899  142.8291  158.4557 C.ar    1  UNL1        0.0188
      9 C         140.2767  143.5621  159.5697 C.ar    1  UNL1        0.0790
     10 C         138.5118  143.5805  161.5771 C.3     1  UNL1        0.1929
     11 N         139.5212  141.4273  162.6235 N.am    1  UNL1       -0.2826
     12 C         138.3307  142.2840  162.3093 C.2     1  UNL1        0.2492
     13 O         136.9589  141.8440  162.7274 O.2     1  UNL1       -0.2727
     14 H         140.4216  141.7160  162.3491 H       1  UNL1        0.1549
     15 C         140.0313  138.8266  161.2176 C.3     1  UNL1        0.0323
     16 C         139.5951  138.8304  162.6527 C.ar    1  UNL1       -0.0084
     17 C         139.4139  137.5339  163.3849 C.ar    1  UNL1       -0.0034
     18 C         138.9776  137.5375  164.8200 C.ar    1  UNL1       -0.0045
     19 C         138.7226  138.8379  165.5229 C.ar    1  UNL1       -0.0213
     20 C         138.9038  140.1344  164.7908 C.ar    1  UNL1        0.0101
     21 C         139.3400  140.1307  163.3556 C.ar    1  UNL1        0.0460
     22 C         138.2863  138.8416  166.9582 C.3     1  UNL1        0.0224
     23 C         137.1423  137.9760  167.3966 C.3     1  UNL1        0.0047
     24 C         138.9939  139.7109  167.9549 C.3     1  UNL1        0.0047
     25 C         140.9469  145.2015  163.0234 C.3     1  UNL1        0.0919
     26 C         141.0840  144.2688  164.1901 C.ar    1  UNL1        0.0065
     27 C         142.3774  143.5464  164.4250 C.ar    1  UNL1        0.0549
     28 CL        143.5338  143.7567  163.4931 Cl      1  UNL1       -0.0825
     29 C         142.5144  142.6136  165.5917 C.ar    1  UNL1        0.0111
     30 C         141.3580  142.4033  166.5236 C.ar    1  UNL1        0.0017
     31 C         140.0645  143.1257  166.2888 C.ar    1  UNL1        0.0111
     32 C         139.9275  144.0584  165.1221 C.ar    1  UNL1        0.0549
     33 CL        138.6341  144.7808  164.8872 Cl      1  UNL1       -0.0825
@<TRIPOS>BOND
     1    15    16    1
     2    16    17   ar
     3    17    18   ar
     4    18    19   ar
     5    19    22    1
     6    22    23    1
     7    22    24    1
     8    19    20   ar
     9    20    21   ar
    10    21    11    1
    11    11    12   am
    12    12    13    2
    13    12    10    1
    14    10     1    1
    15     1     2   ar
    16     2    25    1
    17    25    26    1
    18    26    27   ar
    19    27    28    1
    20    27    29   ar
    21    29    30   ar
    22    30    31   ar
    23    31    32   ar
    24    32    33    1
    25     2     3   ar
    26     3     4   ar
    27     4     5   ar
    28     5     6   ar
    29     6     7   ar
    30     7     8   ar
    31     8     9   ar
    32    21    16   ar
    33     9     1   ar
    34    32    26   ar
    35     9     4   ar
    36    11    14    1
@<TRIPOS>MOLECULE
*****
 33 36 0 0 0
SMALL
GASTEIGER

@<TRIPOS>ATOM
      1 N         142.6688  141.6611  161.7628 N.ar    1  UNL1       -0.3061
      2 C         141.4022  142.1273  161.1082 C.ar    1  UNL1        0.1252
      3 N         140.8763  141.0044  160.2641 N.ar    1  UNL1       -0.2306
      4 C         141.8178  139.8442  160.3970 C.ar    1  UNL1        0.0983
      5 C         141.8094  138.4707  159.7943 C.ar    1  UNL1        0.0206
      6 C         142.9089  137.5030  160.1179 C.ar    1  UNL1        0.0016
      7 C         144.0167  137.9089  161.0442 C.ar    1  UNL1        0.0016
      8 C         144.0251  139.2824  161.6469 C.ar    1  UNL1        0.0188
      9 C         142.9256  140.2501  161.3233 C.ar    1  UNL1        0.0790
     10 C         143.5277  142.4648  162.6936 C.3     1  UNL1        0.1929
     11 N         142.3921  141.4156  164.7815 N.am    1  UNL1       -0.2826
     12 C         143.5428  142.1502  164.1600 C.2     1  UNL1        0.2492
     13 O         144.7088  142.5701  165.0053 O.2     1  UNL1       -0.2727
     14 H         141.6268  141.1400  164.2268 H       1  UNL1        0.1549
     15 C         142.9994  138.6289  165.7117 C.3     1  UNL1        0.0323
     16 C         142.7109  139.7077  166.7131 C.ar    1  UNL1       -0.0084
     17 C         142.7261  139.3931  168.1797 C.ar    1  UNL1       -0.0034
     18 C         142.4376  140.4718  169.1812 C.ar    1  UNL1       -0.0045
     19 C         142.1340  141.8652  168.7161 C.ar    1  UNL1       -0.0213
     20 C         142.1188  142.1798  167.2496 C.ar    1  UNL1        0.0101
     21 C         142.4073  141.1010  166.2481 C.ar    1  UNL1        0.0460
     22 C         141.8455  142.9440  169.7177 C.3     1  UNL1        0.0224
     23 C         142.8847  143.3249  170.7300 C.3     1  UNL1        0.0047
     24 C         140.5177  143.6419  169.7068 C.3     1  UNL1        0.0047
     25 C         140.7723  143.4790  161.2693 C.3     1  UNL1        0.0919
     26 C         139.8465  143.7427  162.4197 C.ar    1  UNL1        0.0065
     27 C         140.3103  144.5713  163.5809 C.ar    1  UNL1        0.0549
     28 CL        141.6997  145.1363  163.5916 Cl      1  UNL1       -0.0825
     29 C         139.3844  144.8350  164.7313 C.ar    1  UNL1        0.0111
     30 C         137.9950  144.2700  164.7206 C.ar    1  UNL1        0.0017
     31 C         137.5313  143.4414  163.5594 C.ar    1  UNL1        0.0111
     32 C         138.4570  143.1777  162.4090 C.ar    1  UNL1        0.0549
     33 CL        137.9933  142.3490  161.2479 Cl      1  UNL1       -0.0825
@<TRIPOS>BOND
     1    15    16    1
     2    16    17   ar
     3    17    18   ar
     4    18    19   ar
     5    19    22    1
     6    22    23    1
     7    22    24    1
     8    19    20   ar
     9    20    21   ar
    10    21    11    1
    11    11    12   am
    12    12    13    2
    13    12    10    1
    14    10     1    1
    15     1     2   ar
    16     2    25    1
    17    25    26    1
    18    26    27   ar
    19    27    28    1
    20    27    29   ar
    21    29    30   ar
    22    30    31   ar
    23    31    32   ar
    24    32    33    1
    25     2     3   ar
    26     3     4   ar
    27     4     5   ar
    28     5     6   ar
    29     6     7   ar
    30     7     8   ar
    31     8     9   ar
    32    21    16   ar
    33     9     1   ar
    34    32    26   ar
    35     9     4   ar
    36    11    14    1
@<TRIPOS>MOLECULE
*****
 33 36 0 0 0
SMALL
GASTEIGER

@<TRIPOS>ATOM
      1 N         140.6633  142.1898  161.4315 N.ar    1  UNL1       -0.3061
      2 C         139.8908  140.9172  161.2480 C.ar    1  UNL1        0.1252
      3 N         140.6527  140.0460  160.2938 N.ar    1  UNL1       -0.2306
      4 C         141.8961  140.7801  159.8877 C.ar    1  UNL1        0.0983
      5 C         143.0232  140.4133  158.9684 C.ar    1  UNL1        0.0206
      6 C         144.1569  141.3715  158.7523 C.ar    1  UNL1        0.0016
      7 C         144.1634  142.6964  159.4554 C.ar    1  UNL1        0.0016
      8 C         143.0363  143.0633  160.3747 C.ar    1  UNL1        0.0188
      9 C         141.9027  142.1051  160.5908 C.ar    1  UNL1        0.0790
     10 C         140.2662  143.3445  162.3027 C.3     1  UNL1        0.1929
     11 N         141.2441  142.1426  164.3882 N.am    1  UNL1       -0.2826
     12 C         140.6828  143.3751  163.7433 C.2     1  UNL1        0.2492
     13 O         140.5381  144.6383  164.5392 O.2     1  UNL1       -0.2727
     14 H         141.3391  141.3135  163.8659 H       1  UNL1        0.1549
     15 C         144.1040  142.6890  165.1113 C.3     1  UNL1        0.0323
     16 C         143.0907  142.4465  166.1904 C.ar    1  UNL1       -0.0084
     17 C         143.5073  142.4772  167.6310 C.ar    1  UNL1       -0.0034
     18 C         142.4941  142.2348  168.7102 C.ar    1  UNL1       -0.0045
     19 C         141.0642  141.9616  168.3486 C.ar    1  UNL1       -0.0213
     20 C         140.6475  141.9308  166.9079 C.ar    1  UNL1        0.0101
     21 C         141.6608  142.1733  165.8288 C.ar    1  UNL1        0.0460
     22 C         140.0508  141.7191  169.4277 C.3     1  UNL1        0.0224
     23 C         139.8095  142.7624  170.4781 C.3     1  UNL1        0.0047
     24 C         139.2789  140.4333  169.4565 C.3     1  UNL1        0.0047
     25 C         138.5855  140.5758  161.9035 C.3     1  UNL1        0.0919
     26 C         138.5728  139.8622  163.2227 C.ar    1  UNL1        0.0065
     27 C         138.1091  140.5765  164.4575 C.ar    1  UNL1        0.0549
     28 CL        137.6581  142.0046  164.3730 Cl      1  UNL1       -0.0825
     29 C         138.0964  139.8628  165.7768 C.ar    1  UNL1        0.0111
     30 C         138.5474  138.4347  165.8613 C.ar    1  UNL1        0.0017
     31 C         139.0111  137.7204  164.6265 C.ar    1  UNL1        0.0111
     32 C         139.0238  138.4340  163.3073 C.ar    1  UNL1        0.0549
     33 CL        139.4875  137.7196  162.0725 Cl      1  UNL1       -0.0825
@<TRIPOS>BOND
     1    15    16    1
     2    16    17   ar
     3    17    18   ar
     4    18    19   ar
     5    19    22    1
     6    22    23    1
     7    22    24    1
     8    19    20   ar
     9    20    21   ar
    10    21    11    1
    11    11    12   am
    12    12    13    2
    13    12    10    1
    14    10     1    1
    15     1     2   ar
    16     2    25    1
    17    25    26    1
    18    26    27   ar
    19    27    28    1
    20    27    29   ar
    21    29    30   ar
    22    30    31   ar
    23    31    32   ar
    24    32    33    1
    25     2     3   ar
    26     3     4   ar
    27     4     5   ar
    28     5     6   ar
    29     6     7   ar
    30     7     8   ar
    31     8     9   ar
    32    21    16   ar
    33     9     1   ar
    34    32    26   ar
    35     9     4   ar
    36    11    14    1
@<TRIPOS>MOLECULE
*****
 33 36 0 0 0
SMALL
GASTEIGER

@<TRIPOS>ATOM
      1 N         141.3715  139.8925  162.2441 N.ar    1  UNL1       -0.3061
      2 C         141.9143  141.0277  161.4276 C.ar    1  UNL1        0.1252
      3 N         140.8458  141.4608  160.4681 N.ar    1  UNL1       -0.2306
      4 C         139.6427  140.5932  160.6915 C.ar    1  UNL1        0.0983
      5 C         138.2933  140.5606  160.0372 C.ar    1  UNL1        0.0206
      6 C         137.2689  139.5587  160.4807 C.ar    1  UNL1        0.0016
      7 C         137.5938  138.5894  161.5784 C.ar    1  UNL1        0.0016
      8 C         138.9432  138.6220  162.2326 C.ar    1  UNL1        0.0188
      9 C         139.9676  139.6239  161.7892 C.ar    1  UNL1        0.0790
     10 C         142.1041  139.1552  163.3257 C.3     1  UNL1        0.1929
     11 N         140.6236  140.3138  165.1189 N.am    1  UNL1       -0.2826
     12 C         141.7400  139.3771  164.7637 C.2     1  UNL1        0.2492
     13 O         142.4924  138.6623  165.8468 O.2     1  UNL1       -0.2727
     14 H         140.1297  140.7830  164.4081 H       1  UNL1        0.1549
     15 C         138.5425  138.5905  166.4226 C.3     1  UNL1        0.0323
     16 C         139.2190  139.6740  167.2089 C.ar    1  UNL1       -0.0084
     17 C         138.8550  139.8959  168.6470 C.ar    1  UNL1       -0.0034
     18 C         139.5315  140.9794  169.4334 C.ar    1  UNL1       -0.0045
     19 C         140.5720  141.8410  168.7815 C.ar    1  UNL1       -0.0213
     20 C         140.9360  141.6192  167.3434 C.ar    1  UNL1        0.0101
     21 C         140.2596  140.5357  166.5570 C.ar    1  UNL1        0.0460
     22 C         141.2486  142.9246  169.5679 C.3     1  UNL1        0.0224
     23 C         142.7056  142.8085  169.9051 C.3     1  UNL1        0.0047
     24 C         140.4682  144.1243  170.0170 C.3     1  UNL1        0.0047
     25 C         143.2848  141.6250  161.5493 C.3     1  UNL1        0.0919
     26 C         143.5962  142.5644  162.6765 C.ar    1  UNL1        0.0065
     27 C         144.4636  142.1106  163.8131 C.ar    1  UNL1        0.0549
     28 CL        145.0197  140.7176  163.8224 Cl      1  UNL1       -0.0825
     29 C         144.7750  143.0501  164.9403 C.ar    1  UNL1        0.0111
     30 C         144.2189  144.4431  164.9310 C.ar    1  UNL1        0.0017
     31 C         143.3514  144.8968  163.7945 C.ar    1  UNL1        0.0111
     32 C         143.0401  143.9575  162.6673 C.ar    1  UNL1        0.0549
     33 CL        142.1726  144.4112  161.5308 Cl      1  UNL1       -0.0825
@<TRIPOS>BOND
     1    15    16    1
     2    16    17   ar
     3    17    18   ar
     4    18    19   ar
     5    19    22    1
     6    22    23    1
     7    22    24    1
     8    19    20   ar
     9    20    21   ar
    10    21    11    1
    11    11    12   am
    12    12    13    2
    13    12    10    1
    14    10     1    1
    15     1     2   ar
    16     2    25    1
    17    25    26    1
    18    26    27   ar
    19    27    28    1
    20    27    29   ar
    21    29    30   ar
    22    30    31   ar
    23    31    32   ar
    24    32    33    1
    25     2     3   ar
    26     3     4   ar
    27     4     5   ar
    28     5     6   ar
    29     6     7   ar
    30     7     8   ar
    31     8     9   ar
    32    21    16   ar
    33     9     1   ar
    34    32    26   ar
    35     9     4   ar
    36    11    14    1
@<TRIPOS>MOLECULE
*****
 33 36 0 0 0
SMALL
GASTEIGER

@<TRIPOS>ATOM
      1 N         142.9488  141.5079  166.3944 N.ar    1  UNL1       -0.3061
      2 C         143.0911  140.0714  165.9869 C.ar    1  UNL1        0.1252
      3 N         142.1235  139.2615  166.7980 N.ar    1  UNL1       -0.2306
      4 C         141.3833  140.1975  167.7069 C.ar    1  UNL1        0.0983
      5 C         140.3107  139.9650  168.7294 C.ar    1  UNL1        0.0206
      6 C         139.7483  141.1208  169.5024 C.ar    1  UNL1        0.0016
      7 C         140.2584  142.5092  169.2530 C.ar    1  UNL1        0.0016
      8 C         141.3309  142.7417  168.2305 C.ar    1  UNL1        0.0188
      9 C         141.8934  141.5859  167.4575 C.ar    1  UNL1        0.0790
     10 C         143.7257  142.6636  165.8369 C.3     1  UNL1        0.1929
     11 N         141.9299  143.0211  163.9938 N.am    1  UNL1       -0.2826
     12 C         143.1401  143.5009  164.7388 C.2     1  UNL1        0.2492
     13 O         143.7648  144.8182  164.3856 O.2     1  UNL1       -0.2727
     14 H         141.5198  142.1566  164.2255 H       1  UNL1        0.1549
     15 C         139.5899  144.8118  164.5579 C.3     1  UNL1        0.0323
     16 C         140.1744  144.7539  163.1777 C.ar    1  UNL1       -0.0084
     17 C         139.5888  145.5913  162.0796 C.ar    1  UNL1       -0.0034
     18 C         140.1732  145.5334  160.6993 C.ar    1  UNL1       -0.0045
     19 C         141.3432  144.6381  160.4172 C.ar    1  UNL1       -0.0213
     20 C         141.9287  143.8007  161.5154 C.ar    1  UNL1        0.0101
     21 C         141.3443  143.8585  162.8956 C.ar    1  UNL1        0.0460
     22 C         141.9276  144.5801  159.0369 C.3     1  UNL1        0.0224
     23 C         141.6419  145.6773  158.0548 C.3     1  UNL1        0.0047
     24 C         142.7977  143.4250  158.6388 C.3     1  UNL1        0.0047
     25 C         144.0351  139.5383  164.9502 C.3     1  UNL1        0.0919
     26 C         143.7701  139.7884  163.4952 C.ar    1  UNL1        0.0065
     27 C         144.6270  140.7545  162.7320 C.ar    1  UNL1        0.0549
     28 CL        145.7487  141.4706  163.4240 Cl      1  UNL1       -0.0825
     29 C         144.3620  141.0046  161.2769 C.ar    1  UNL1        0.0111
     30 C         143.2402  140.2885  160.5850 C.ar    1  UNL1        0.0017
     31 C         142.3834  139.3223  161.3481 C.ar    1  UNL1        0.0111
     32 C         142.6483  139.0722  162.8032 C.ar    1  UNL1        0.0549
     33 CL        141.7915  138.1060  163.5663 Cl      1  UNL1       -0.0825
@<TRIPOS>BOND
     1    15    16    1
     2    16    17   ar
     3    17    18   ar
     4    18    19   ar
     5    19    22    1
     6    22    23    1
     7    22    24    1
     8    19    20   ar
     9    20    21   ar
    10    21    11    1
    11    11    12   am
    12    12    13    2
    13    12    10    1
    14    10     1    1
    15     1     2   ar
    16     2    25    1
    17    25    26    1
    18    26    27   ar
    19    27    28    1
    20    27    29   ar
    21    29    30   ar
    22    30    31   ar
    23    31    32   ar
    24    32    33    1
    25     2     3   ar
    26     3     4   ar
    27     4     5   ar
    28     5     6   ar
    29     6     7   ar
    30     7     8   ar
    31     8     9   ar
    32    21    16   ar
    33     9     1   ar
    34    32    26   ar
    35     9     4   ar
    36    11    14    1
@<TRIPOS>MOLECULE
*****
 33 36 0 0 0
SMALL
GASTEIGER

@<TRIPOS>ATOM
      1 N         141.0847  140.1633  166.5994 N.ar    1  UNL1       -0.3061
      2 C         142.2313  139.2010  166.5029 C.ar    1  UNL1        0.1252
      3 N         143.1921  139.5122  167.6119 N.ar    1  UNL1       -0.2306
      4 C         142.6394  140.6668  168.3938 C.ar    1  UNL1        0.0983
      5 C         143.1538  141.4037  169.5948 C.ar    1  UNL1        0.0206
      6 C         142.3658  142.5430  170.1700 C.ar    1  UNL1        0.0016
      7 C         141.0633  142.9454  169.5442 C.ar    1  UNL1        0.0016
      8 C         140.5489  142.2085  168.3433 C.ar    1  UNL1        0.0188
      9 C         141.3369  141.0692  167.7681 C.ar    1  UNL1        0.0790
     10 C         139.8948  140.2113  165.6874 C.3     1  UNL1        0.1929
     11 N         140.7698  142.3720  164.5404 N.am    1  UNL1       -0.2826
     12 C         139.8715  141.1707  164.5347 C.2     1  UNL1        0.2492
     13 O         138.9498  140.9290  163.3761 O.2     1  UNL1       -0.2727
     14 H         141.3747  142.5307  165.3007 H       1  UNL1        0.1549
     15 C         139.0995  144.8594  164.6926 C.3     1  UNL1        0.0323
     16 C         139.9113  144.5752  163.4637 C.ar    1  UNL1       -0.0084
     17 C         139.8879  145.5346  162.3109 C.ar    1  UNL1       -0.0034
     18 C         140.6997  145.2504  161.0820 C.ar    1  UNL1       -0.0045
     19 C         141.5348  144.0067  161.0059 C.ar    1  UNL1       -0.0213
     20 C         141.5581  143.0473  162.1587 C.ar    1  UNL1        0.0101
     21 C         140.7464  143.3314  163.3876 C.ar    1  UNL1        0.0460
     22 C         142.3466  143.7224  159.7769 C.3     1  UNL1        0.0224
     23 C         143.5123  142.7812  159.8492 C.3     1  UNL1        0.0047
     24 C         141.9926  144.3793  158.4757 C.3     1  UNL1        0.0047
     25 C         142.3893  138.1178  165.4774 C.3     1  UNL1        0.0919
     26 C         142.5661  138.4741  164.0312 C.ar    1  UNL1        0.0065
     27 C         143.8257  139.1477  163.5733 C.ar    1  UNL1        0.0549
     28 CL        144.9084  139.4650  164.5616 Cl      1  UNL1       -0.0825
     29 C         144.0024  139.5041  162.1269 C.ar    1  UNL1        0.0111
     30 C         142.9197  139.1868  161.1386 C.ar    1  UNL1        0.0017
     31 C         141.6601  138.5132  161.5965 C.ar    1  UNL1        0.0111
     32 C         141.4833  138.1568  163.0427 C.ar    1  UNL1        0.0549
     33 CL        140.2237  137.4832  163.5006 Cl      1  UNL1       -0.0825
@<TRIPOS>BOND
     1    15    16    1
     2    16    17   ar
     3    17    18   ar
     4    18    19   ar
     5    19    22    1
     6    22    23    1
     7    22    24    1
     8    19    20   ar
     9    20    21   ar
    10    21    11    1
    11    11    12   am
    12    12    13    2
    13    12    10    1
    14    10     1    1
    15     1     2   ar
    16     2    25    1
    17    25    26    1
    18    26    27   ar
    19    27    28    1
    20    27    29   ar
    21    29    30   ar
    22    30    31   ar
    23    31    32   ar
    24    32    33    1
    25     2     3   ar
    26     3     4   ar
    27     4     5   ar
    28     5     6   ar
    29     6     7   ar
    30     7     8   ar
    31     8     9   ar
    32    21    16   ar
    33     9     1   ar
    34    32    26   ar
    35     9     4   ar
    36    11    14    1
@<TRIPOS>MOLECULE
*****
 33 36 0 0 0
SMALL
GASTEIGER

@<TRIPOS>ATOM
      1 N         139.7644  143.6908  160.7299 N.ar    1  UNL1       -0.3061
      2 C         140.6199  144.7837  161.2987 C.ar    1  UNL1        0.1252
      3 N         141.5875  145.2152  160.2368 N.ar    1  UNL1       -0.2306
      4 C         141.3300  144.3889  159.0117 C.ar    1  UNL1        0.0983
      5 C         141.9759  144.3726  157.6580 C.ar    1  UNL1        0.0206
      6 C         141.4951  143.4143  156.6091 C.ar    1  UNL1        0.0016
      7 C         140.3684  142.4722  156.9138 C.ar    1  UNL1        0.0016
      8 C         139.7224  142.4884  158.2675 C.ar    1  UNL1        0.0188
      9 C         140.2033  143.4468  159.3164 C.ar    1  UNL1        0.0790
     10 C         138.6634  142.9686  161.4483 C.3     1  UNL1        0.1929
     11 N         140.2363  140.9843  162.0301 N.am    1  UNL1       -0.2826
     12 C         138.9765  141.7597  162.2790 C.2     1  UNL1        0.2492
     13 O         138.0299  141.3258  163.3588 O.2     1  UNL1       -0.2727
     14 H         140.8575  141.2690  161.3214 H       1  UNL1        0.1549
     15 C         139.1966  138.2918  161.2118 C.3     1  UNL1        0.0323
     16 C         140.0296  138.4290  162.4517 C.ar    1  UNL1       -0.0084
     17 C         140.3427  137.2200  163.2824 C.ar    1  UNL1       -0.0034
     18 C         141.1756  137.3571  164.5223 C.ar    1  UNL1       -0.0045
     19 C         141.6954  138.7034  164.9315 C.ar    1  UNL1       -0.0213
     20 C         141.3823  139.9124  164.1007 C.ar    1  UNL1        0.0101
     21 C         140.5494  139.7753  162.8608 C.ar    1  UNL1        0.0460
     22 C         142.5284  138.8406  166.1714 C.3     1  UNL1        0.0224
     23 C         143.9042  138.2449  166.2204 C.3     1  UNL1        0.0047
     24 C         141.9856  139.5734  167.3623 C.3     1  UNL1        0.0047
     25 C         140.5246  145.3464  162.6859 C.3     1  UNL1        0.0919
     26 C         140.8385  144.4804  163.8698 C.ar    1  UNL1        0.0065
     27 C         142.2359  143.9786  164.0825 C.ar    1  UNL1        0.0549
     28 CL        143.3195  144.3427  163.1113 Cl      1  UNL1       -0.0825
     29 C         142.5498  143.1126  165.2664 C.ar    1  UNL1        0.0111
     30 C         141.4662  142.7485  166.2375 C.ar    1  UNL1        0.0017
     31 C         140.0687  143.2503  166.0248 C.ar    1  UNL1        0.0111
     32 C         139.7548  144.1163  164.8410 C.ar    1  UNL1        0.0549
     33 CL        138.3574  144.6181  164.6283 Cl      1  UNL1       -0.0825
@<TRIPOS>BOND
     1    15    16    1
     2    16    17   ar
     3    17    18   ar
     4    18    19   ar
     5    19    22    1
     6    22    23    1
     7    22    24    1
     8    19    20   ar
     9    20    21   ar
    10    21    11    1
    11    11    12   am
    12    12    13    2
    13    12    10    1
    14    10     1    1
    15     1     2   ar
    16     2    25    1
    17    25    26    1
    18    26    27   ar
    19    27    28    1
    20    27    29   ar
    21    29    30   ar
    22    30    31   ar
    23    31    32   ar
    24    32    33    1
    25     2     3   ar
    26     3     4   ar
    27     4     5   ar
    28     5     6   ar
    29     6     7   ar
    30     7     8   ar
    31     8     9   ar
    32    21    16   ar
    33     9     1   ar
    34    32    26   ar
    35     9     4   ar
    36    11    14    1
@<TRIPOS>MOLECULE
*****
 33 36 0 0 0
SMALL
GASTEIGER

@<TRIPOS>ATOM
      1 N         144.0487  141.1607  160.5966 N.ar    1  UNL1       -0.3061
      2 C         143.8530  139.6737  160.5762 C.ar    1  UNL1        0.1252
      3 N         143.2470  139.3040  159.2548 N.ar    1  UNL1       -0.2306
      4 C         143.0681  140.5626  158.4586 C.ar    1  UNL1        0.0983
      5 C         142.5181  140.8120  157.0856 C.ar    1  UNL1        0.0206
      6 C         142.4635  142.2089  156.5419 C.ar    1  UNL1        0.0016
      7 C         142.9589  143.3564  157.3712 C.ar    1  UNL1        0.0016
      8 C         143.5090  143.1070  158.7442 C.ar    1  UNL1        0.0188
      9 C         143.5636  141.7101  159.2879 C.ar    1  UNL1        0.0790
     10 C         144.6278  141.9584  161.7273 C.3     1  UNL1        0.1929
     11 N         142.2584  142.2321  162.7574 N.am    1  UNL1       -0.2826
     12 C         143.7236  142.5533  162.7657 C.2     1  UNL1        0.2492
     13 O         144.2845  143.4695  163.8127 O.2     1  UNL1       -0.2727
     14 H         141.8902  141.6308  162.0703 H       1  UNL1        0.1549
     15 C         140.6016  144.6450  162.0991 C.3     1  UNL1        0.0323
     16 C         140.5258  144.0336  163.4667 C.ar    1  UNL1       -0.0084
     17 C         139.6217  144.6285  164.5052 C.ar    1  UNL1       -0.0034
     18 C         139.5458  144.0172  165.8728 C.ar    1  UNL1       -0.0045
     19 C         140.3742  142.8107  166.2020 C.ar    1  UNL1       -0.0213
     20 C         141.2784  142.2157  165.1635 C.ar    1  UNL1        0.0101
     21 C         141.3542  142.8271  163.7959 C.ar    1  UNL1        0.0460
     22 C         140.2984  142.1993  167.5697 C.3     1  UNL1        0.0224
     23 C         140.6065  143.0294  168.7805 C.3     1  UNL1        0.0047
     24 C         139.9145  140.7577  167.7265 C.3     1  UNL1        0.0047
     25 C         144.2021  138.7232  161.6829 C.3     1  UNL1        0.0919
     26 C         143.3470  138.6583  162.9135 C.ar    1  UNL1        0.0065
     27 C         141.9414  138.1423  162.8238 C.ar    1  UNL1        0.0549
     28 CL        141.3909  137.6912  161.5034 Cl      1  UNL1       -0.0825
     29 C         141.0863  138.0775  164.0545 C.ar    1  UNL1        0.0111
     30 C         141.6368  138.5286  165.3749 C.ar    1  UNL1        0.0017
     31 C         143.0424  139.0446  165.4646 C.ar    1  UNL1        0.0111
     32 C         143.8975  139.1095  164.2340 C.ar    1  UNL1        0.0549
     33 CL        145.3031  139.6255  164.3237 Cl      1  UNL1       -0.0825
@<TRIPOS>BOND
     1    15    16    1
     2    16    17   ar
     3    17    18   ar
     4    18    19   ar
     5    19    22    1
     6    22    23    1
     7    22    24    1
     8    19    20   ar
     9    20    21   ar
    10    21    11    1
    11    11    12   am
    12    12    13    2
    13    12    10    1
    14    10     1    1
    15     1     2   ar
    16     2    25    1
    17    25    26    1
    18    26    27   ar
    19    27    28    1
    20    27    29   ar
    21    29    30   ar
    22    30    31   ar
    23    31    32   ar
    24    32    33    1
    25     2     3   ar
    26     3     4   ar
    27     4     5   ar
    28     5     6   ar
    29     6     7   ar
    30     7     8   ar
    31     8     9   ar
    32    21    16   ar
    33     9     1   ar
    34    32    26   ar
    35     9     4   ar
    36    11    14    1
@<TRIPOS>MOLECULE
*****
 33 36 0 0 0
SMALL
GASTEIGER

@<TRIPOS>ATOM
      1 N         138.8435  143.1725  161.3211 N.ar    1  UNL1       -0.3061
      2 C         138.2359  141.8011  161.3246 C.ar    1  UNL1        0.1252
      3 N         138.4882  141.1790  159.9832 N.ar    1  UNL1       -0.2306
      4 C         139.2518  142.1659  159.1508 C.ar    1  UNL1        0.0983
      5 C         139.7755  142.1018  157.7467 C.ar    1  UNL1        0.0206
      6 C         140.5188  143.2698  157.1694 C.ar    1  UNL1        0.0016
      7 C         140.7384  144.5019  157.9963 C.ar    1  UNL1        0.0016
      8 C         140.2147  144.5660  159.4004 C.ar    1  UNL1        0.0188
      9 C         139.4714  143.3980  159.9777 C.ar    1  UNL1        0.0790
     10 C         138.8263  144.1474  162.4611 C.3     1  UNL1        0.1929
     11 N         141.1088  143.2295  163.2962 N.am    1  UNL1       -0.2826
     12 C         139.9113  144.1104  163.4960 C.2     1  UNL1        0.2492
     13 O         139.7990  144.9545  164.7310 O.2     1  UNL1       -0.2727
     14 H         141.1826  142.6755  162.4857 H       1  UNL1        0.1549
     15 C         143.7211  144.6118  162.7809 C.3     1  UNL1        0.0323
     16 C         143.5000  143.8837  164.0736 C.ar    1  UNL1       -0.0084
     17 C         144.5850  143.8468  165.1086 C.ar    1  UNL1       -0.0034
     18 C         144.3640  143.1188  166.4013 C.ar    1  UNL1       -0.0045
     19 C         143.0579  142.4276  166.6590 C.ar    1  UNL1       -0.0213
     20 C         141.9729  142.4645  165.6239 C.ar    1  UNL1        0.0101
     21 C         142.1939  143.1926  164.3312 C.ar    1  UNL1        0.0460
     22 C         142.8368  141.6995  167.9517 C.3     1  UNL1        0.0224
     23 C         143.3680  142.2692  169.2337 C.3     1  UNL1        0.0047
     24 C         142.0846  140.4019  167.9625 C.3     1  UNL1        0.0047
     25 C         137.5044  141.1638  162.4686 C.3     1  UNL1        0.0919
     26 C         138.1646  140.0828  163.2720 C.ar    1  UNL1        0.0065
     27 C         138.2939  138.6999  162.7054 C.ar    1  UNL1        0.0549
     28 CL        137.7628  138.3980  161.3355 Cl      1  UNL1       -0.0825
     29 C         138.9542  137.6189  163.5089 C.ar    1  UNL1        0.0111
     30 C         139.4853  137.9208  164.8788 C.ar    1  UNL1        0.0017
     31 C         139.3560  139.3037  165.4454 C.ar    1  UNL1        0.0111
     32 C         138.6957  140.3847  164.6420 C.ar    1  UNL1        0.0549
     33 CL        138.5665  141.7675  165.2085 Cl      1  UNL1       -0.0825
@<TRIPOS>BOND
     1    15    16    1
     2    16    17   ar
     3    17    18   ar
     4    18    19   ar
     5    19    22    1
     6    22    23    1
     7    22    24    1
     8    19    20   ar
     9    20    21   ar
    10    21    11    1
    11    11    12   am
    12    12    13    2
    13    12    10    1
    14    10     1    1
    15     1     2   ar
    16     2    25    1
    17    25    26    1
    18    26    27   ar
    19    27    28    1
    20    27    29   ar
    21    29    30   ar
    22    30    31   ar
    23    31    32   ar
    24    32    33    1
    25     2     3   ar
    26     3     4   ar
    27     4     5   ar
    28     5     6   ar
    29     6     7   ar
    30     7     8   ar
    31     8     9   ar
    32    21    16   ar
    33     9     1   ar
    34    32    26   ar
    35     9     4   ar
    36    11    14    1
