@<TRIPOS>MOLECULE
*****
 35 37 0 0 0
SMALL
GASTEIGER

@<TRIPOS>ATOM
      1 C         138.8991  139.7802  166.5209 C.3     1  UNL1        0.0944
      2 N         139.9696  140.6401  167.1247 N.am    1  UNL1       -0.3005
      3 C         140.1243  140.7094  168.6151 C.2     1  UNL1        0.2474
      4 O         139.2084  139.9188  169.5017 O.2     1  UNL1       -0.2701
      5 H         140.5708  141.1590  166.5427 H       1  UNL1        0.1498
      6 C         141.1948  141.5694  169.2189 C.ar    1  UNL1        0.0727
      7 C         142.6396  141.2201  169.0179 C.ar    1  UNL1        0.0109
      8 C         143.7101  142.0800  169.6217 C.ar    1  UNL1        0.0579
      9 C         143.3358  143.2892  170.4264 C.ar    1  UNL1        0.2249
     10 N         141.8909  143.6386  170.6274 N.ar    1  UNL1       -0.2100
     11 C         140.8204  142.7786  170.0237 C.ar    1  UNL1        0.1065
     12 O         144.4063  144.1492  171.0302 O.3     1  UNL1       -0.4599
     13 C         145.8514  143.8173  170.8038 C.3     1  UNL1        0.2159
     14 C         146.9047  144.8618  171.0268 C.3     1  UNL1        0.1505
     15 C         146.7366  145.8748  172.1203 C.3     1  UNL1        0.4014
     16 F         146.5687  146.8878  173.2138 F       1  UNL1       -0.1699
     17 F         147.4453  144.9610  173.0757 F       1  UNL1       -0.1699
     18 F         146.0280  146.7886  171.1650 F       1  UNL1       -0.1699
     19 C         138.6541  139.8157  165.0415 C.3     1  UNL1        0.0476
     20 C         141.6031  137.9116  162.2259 C.ar    1  UNL1        0.1387
     21 C         141.0295  137.1168  163.3613 C.ar    1  UNL1        0.0366
     22 C         140.0465  137.7515  164.2998 C.ar    1  UNL1       -0.0011
     23 C         139.6371  139.1810  164.1030 C.ar    1  UNL1       -0.0202
     24 C         140.2107  139.9758  162.9676 C.ar    1  UNL1        0.0021
     25 C         141.1937  139.3411  162.0290 C.ar    1  UNL1        0.0367
     26 C         139.8013  141.4055  162.7707 C.ar    1  UNL1        0.0384
     27 C         140.5756  142.5055  163.4343 C.ar    1  UNL1        0.1051
     28 N         140.1662  143.9351  163.2374 N.ar    1  UNL1       -0.1927
     29 C         138.9826  144.2646  162.3769 C.ar    1  UNL1        0.3201
     30 N         138.2083  143.1645  161.7133 N.ar    1  UNL1       -0.1927
     31 C         138.6177  141.7349  161.9102 C.ar    1  UNL1        0.1051
     32 O         138.5732  145.6941  162.1800 O.3     1  UNL1       -0.4426
     33 C         139.4511  146.6245  161.3967 C.3     1  UNL1        0.2559
     34 C         144.0161  137.7295  161.2804 C.3     1  UNL1        0.2525
     35 O         142.5861  137.2769  161.2873 O.3     1  UNL1       -0.4714
@<TRIPOS>BOND
     1    34    35    1
     2    35    20    1
     3    20    21   ar
     4    21    22   ar
     5    22    23   ar
     6    23    19    1
     7    19     1    1
     8     1     2    1
     9     2     3   am
    10     3     4    2
    11     3     6    1
    12     6     7   ar
    13     7     8   ar
    14     8     9   ar
    15     9    12    1
    16    12    13    1
    17    13    14    1
    18    14    15    1
    19    15    16    1
    20    15    17    1
    21    15    18    1
    22     9    10   ar
    23    10    11   ar
    24    23    24   ar
    25    24    26    1
    26    26    27   ar
    27    27    28   ar
    28    28    29   ar
    29    29    32    1
    30    32    33    1
    31    29    30   ar
    32    30    31   ar
    33    24    25   ar
    34    25    20   ar
    35    11     6   ar
    36    31    26   ar
    37     2     5    1
@<TRIPOS>MOLECULE
*****
 35 37 0 0 0
SMALL
GASTEIGER

@<TRIPOS>ATOM
      1 C         138.7985  137.6323  165.1328 C.3     1  UNL1        0.0944
      2 N         139.7961  137.7990  164.0251 N.am    1  UNL1       -0.3005
      3 C         139.3288  137.8924  162.6027 C.2     1  UNL1        0.2474
      4 O         137.8641  137.8192  162.2882 O.2     1  UNL1       -0.2701
      5 H         140.7575  137.8471  164.2316 H       1  UNL1        0.1498
      6 C         140.3264  138.0591  161.4950 C.ar    1  UNL1        0.0727
      7 C         141.7766  137.7654  161.7412 C.ar    1  UNL1        0.0109
      8 C         142.7742  137.9321  160.6335 C.ar    1  UNL1        0.0579
      9 C         142.3216  138.3926  159.2796 C.ar    1  UNL1        0.2249
     10 N         140.8714  138.6863  159.0334 N.ar    1  UNL1       -0.2100
     11 C         139.8738  138.5196  160.1411 C.ar    1  UNL1        0.1065
     12 O         143.3192  138.5593  158.1719 O.3     1  UNL1       -0.4599
     13 C         143.1977  137.7372  156.9232 C.3     1  UNL1        0.2159
     14 C         142.7008  136.3240  157.0009 C.3     1  UNL1        0.1505
     15 C         143.4912  135.2154  156.3714 C.3     1  UNL1        0.4014
     16 F         144.2815  134.1067  155.7419 F       1  UNL1       -0.1699
     17 F         142.5475  134.2087  156.9596 F       1  UNL1       -0.1699
     18 F         144.4348  136.2221  155.7831 F       1  UNL1       -0.1699
     19 C         138.5073  138.7762  166.0583 C.3     1  UNL1        0.0476
     20 C         139.1442  143.0099  164.6726 C.ar    1  UNL1        0.1387
     21 C         138.0575  142.1761  164.0613 C.ar    1  UNL1        0.0366
     22 C         137.8452  140.7649  164.5232 C.ar    1  UNL1       -0.0011
     23 C         138.7196  140.1874  165.5964 C.ar    1  UNL1       -0.0202
     24 C         139.8064  141.0212  166.2077 C.ar    1  UNL1        0.0021
     25 C         140.0187  142.4324  165.7458 C.ar    1  UNL1        0.0367
     26 C         140.6809  140.4437  167.2810 C.ar    1  UNL1        0.0384
     27 C         140.1949  140.3954  168.6992 C.ar    1  UNL1        0.1051
     28 N         141.0694  139.8180  169.7725 N.ar    1  UNL1       -0.1927
     29 C         142.4299  139.2888  169.4274 C.ar    1  UNL1        0.3201
     30 N         142.9159  139.3372  168.0091 N.ar    1  UNL1       -0.1927
     31 C         142.0414  139.9146  166.9359 C.ar    1  UNL1        0.1051
     32 O         143.3044  138.7114  170.5006 O.3     1  UNL1       -0.4426
     33 C         143.4940  137.2265  170.5953 C.3     1  UNL1        0.2559
     34 C         138.8139  144.8660  162.8850 C.3     1  UNL1        0.2525
     35 O         139.3566  144.4211  164.2107 O.3     1  UNL1       -0.4714
@<TRIPOS>BOND
     1    34    35    1
     2    35    20    1
     3    20    21   ar
     4    21    22   ar
     5    22    23   ar
     6    23    19    1
     7    19     1    1
     8     1     2    1
     9     2     3   am
    10     3     4    2
    11     3     6    1
    12     6     7   ar
    13     7     8   ar
    14     8     9   ar
    15     9    12    1
    16    12    13    1
    17    13    14    1
    18    14    15    1
    19    15    16    1
    20    15    17    1
    21    15    18    1
    22     9    10   ar
    23    10    11   ar
    24    23    24   ar
    25    24    26    1
    26    26    27   ar
    27    27    28   ar
    28    28    29   ar
    29    29    32    1
    30    32    33    1
    31    29    30   ar
    32    30    31   ar
    33    24    25   ar
    34    25    20   ar
    35    11     6   ar
    36    31    26   ar
    37     2     5    1
@<TRIPOS>MOLECULE
*****
 35 37 0 0 0
SMALL
GASTEIGER

@<TRIPOS>ATOM
      1 C         139.1676  137.9022  165.0131 C.3     1  UNL1        0.0944
      2 N         140.1244  138.0363  163.8656 N.am    1  UNL1       -0.3005
      3 C         139.6087  138.0522  162.4571 C.2     1  UNL1        0.2474
      4 O         138.1364  137.9341  162.1960 O.2     1  UNL1       -0.2701
      5 H         141.0908  138.1138  164.0369 H       1  UNL1        0.1498
      6 C         140.5655  138.1863  161.3096 C.ar    1  UNL1        0.0727
      7 C         140.0651  138.6151  159.9621 C.ar    1  UNL1        0.0109
      8 C         141.0219  138.7492  158.8147 C.ar    1  UNL1        0.0579
      9 C         142.4790  138.4545  159.0147 C.ar    1  UNL1        0.2249
     10 N         142.9794  138.0258  160.3623 N.ar    1  UNL1       -0.2100
     11 C         142.0226  137.8917  161.5097 C.ar    1  UNL1        0.1065
     12 O         143.4357  138.5886  157.8673 O.3     1  UNL1       -0.4599
     13 C         142.9178  138.6344  156.4603 C.3     1  UNL1        0.2159
     14 C         142.7497  137.3636  155.6812 C.3     1  UNL1        0.1505
     15 C         143.3739  136.0925  156.1760 C.3     1  UNL1        0.4014
     16 F         143.9979  134.8214  156.6708 F       1  UNL1       -0.1699
     17 F         142.1067  135.7536  156.9037 F       1  UNL1       -0.1699
     18 F         144.6410  136.4313  155.4484 F       1  UNL1       -0.1699
     19 C         138.4306  139.1063  165.5197 C.3     1  UNL1        0.0476
     20 C         140.5407  142.1015  168.1323 C.ar    1  UNL1        0.1387
     21 C         140.1751  140.7540  168.6806 C.ar    1  UNL1        0.0366
     22 C         139.4718  139.7556  167.8097 C.ar    1  UNL1       -0.0011
     23 C         139.1339  140.1047  166.3905 C.ar    1  UNL1       -0.0202
     24 C         139.4995  141.4522  165.8423 C.ar    1  UNL1        0.0021
     25 C         140.2028  142.4506  166.7132 C.ar    1  UNL1        0.0367
     26 C         139.1617  141.8014  164.4231 C.ar    1  UNL1        0.0384
     27 C         140.1704  141.5788  163.3355 C.ar    1  UNL1        0.1051
     28 N         139.8325  141.9280  161.9163 N.ar    1  UNL1       -0.1927
     29 C         138.4860  142.4997  161.5848 C.ar    1  UNL1        0.3201
     30 N         137.4772  142.7222  162.6725 N.ar    1  UNL1       -0.1927
     31 C         137.8151  142.3731  164.0916 C.ar    1  UNL1        0.1051
     32 O         138.1481  142.8488  160.1657 O.3     1  UNL1       -0.4426
     33 C         139.2222  142.8543  159.1187 C.3     1  UNL1        0.2559
     34 C         140.4606  143.9291  169.9772 C.3     1  UNL1        0.2525
     35 O         141.2440  143.0999  169.0032 O.3     1  UNL1       -0.4714
@<TRIPOS>BOND
     1    34    35    1
     2    35    20    1
     3    20    21   ar
     4    21    22   ar
     5    22    23   ar
     6    23    19    1
     7    19     1    1
     8     1     2    1
     9     2     3   am
    10     3     4    2
    11     3     6    1
    12     6     7   ar
    13     7     8   ar
    14     8     9   ar
    15     9    12    1
    16    12    13    1
    17    13    14    1
    18    14    15    1
    19    15    16    1
    20    15    17    1
    21    15    18    1
    22     9    10   ar
    23    10    11   ar
    24    23    24   ar
    25    24    26    1
    26    26    27   ar
    27    27    28   ar
    28    28    29   ar
    29    29    32    1
    30    32    33    1
    31    29    30   ar
    32    30    31   ar
    33    24    25   ar
    34    25    20   ar
    35    11     6   ar
    36    31    26   ar
    37     2     5    1
@<TRIPOS>MOLECULE
*****
 35 37 0 0 0
SMALL
GASTEIGER

@<TRIPOS>ATOM
      1 C         138.7716  138.1014  165.0451 C.3     1  UNL1        0.0944
      2 N         139.3983  138.2666  163.6923 N.am    1  UNL1       -0.3005
      3 C         140.8337  137.8867  163.4792 C.2     1  UNL1        0.2474
      4 O         141.6423  137.3415  164.6189 O.2     1  UNL1       -0.2701
      5 H         138.8675  138.6244  162.9443 H       1  UNL1        0.1498
      6 C         141.4604  138.0519  162.1265 C.ar    1  UNL1        0.0727
      7 C         142.9440  137.9027  161.9639 C.ar    1  UNL1        0.0109
      8 C         143.5707  138.0679  160.6112 C.ar    1  UNL1        0.0579
      9 C         142.7137  138.3823  159.4209 C.ar    1  UNL1        0.2249
     10 N         141.2300  138.5315  159.5834 N.ar    1  UNL1       -0.2100
     11 C         140.6033  138.3663  160.9362 C.ar    1  UNL1        0.1065
     12 O         143.3404  138.5475  158.0682 O.3     1  UNL1       -0.4599
     13 C         142.9662  137.6204  156.9500 C.3     1  UNL1        0.2159
     14 C         142.6653  136.1796  157.2391 C.3     1  UNL1        0.1505
     15 C         143.4540  135.0982  156.5619 C.3     1  UNL1        0.4014
     16 F         144.2427  134.0168  155.8846 F       1  UNL1       -0.1699
     17 F         143.4060  135.8687  155.2758 F       1  UNL1       -0.1699
     18 F         143.5020  134.3277  157.8479 F       1  UNL1       -0.1699
     19 C         138.1867  139.2888  165.7508 C.3     1  UNL1        0.0476
     20 C         140.8220  141.9413  168.2546 C.ar    1  UNL1        0.1387
     21 C         140.2964  140.6559  168.8216 C.ar    1  UNL1        0.0366
     22 C         139.4180  139.7717  167.9869 C.ar    1  UNL1       -0.0011
     23 C         139.0651  140.1730  166.5854 C.ar    1  UNL1       -0.0202
     24 C         139.5907  141.4584  166.0184 C.ar    1  UNL1        0.0021
     25 C         140.4691  142.3425  166.8530 C.ar    1  UNL1        0.0367
     26 C         139.2378  141.8596  164.6168 C.ar    1  UNL1        0.0384
     27 C         137.9325  142.5443  164.3387 C.ar    1  UNL1        0.1051
     28 N         137.5796  142.9456  162.9371 N.ar    1  UNL1       -0.1927
     29 C         138.5322  142.6622  161.8135 C.ar    1  UNL1        0.3201
     30 N         139.8376  141.9775  162.0916 N.ar    1  UNL1       -0.1927
     31 C         140.1904  141.5762  163.4932 C.ar    1  UNL1        0.1051
     32 O         138.1794  143.0634  160.4119 O.3     1  UNL1       -0.4426
     33 C         139.2459  143.1273  159.3592 C.3     1  UNL1        0.2559
     34 C         143.1000  142.3974  169.4176 C.3     1  UNL1        0.2525
     35 O         141.7004  142.8255  169.0892 O.3     1  UNL1       -0.4714
@<TRIPOS>BOND
     1    34    35    1
     2    35    20    1
     3    20    21   ar
     4    21    22   ar
     5    22    23   ar
     6    23    19    1
     7    19     1    1
     8     1     2    1
     9     2     3   am
    10     3     4    2
    11     3     6    1
    12     6     7   ar
    13     7     8   ar
    14     8     9   ar
    15     9    12    1
    16    12    13    1
    17    13    14    1
    18    14    15    1
    19    15    16    1
    20    15    17    1
    21    15    18    1
    22     9    10   ar
    23    10    11   ar
    24    23    24   ar
    25    24    26    1
    26    26    27   ar
    27    27    28   ar
    28    28    29   ar
    29    29    32    1
    30    32    33    1
    31    29    30   ar
    32    30    31   ar
    33    24    25   ar
    34    25    20   ar
    35    11     6   ar
    36    31    26   ar
    37     2     5    1
@<TRIPOS>MOLECULE
*****
 35 37 0 0 0
SMALL
GASTEIGER

@<TRIPOS>ATOM
      1 C         138.5420  138.3094  161.7588 C.3     1  UNL1        0.0944
      2 N         138.8358  138.4227  163.2254 N.am    1  UNL1       -0.3005
      3 C         138.3241  139.5982  164.0042 C.2     1  UNL1        0.2474
      4 O         137.5186  140.6603  163.3165 O.2     1  UNL1       -0.2701
      5 H         139.3645  137.7256  163.6768 H       1  UNL1        0.1498
      6 C         138.6180  139.7114  165.4708 C.ar    1  UNL1        0.0727
      7 C         139.5888  140.7431  165.9637 C.ar    1  UNL1        0.0109
      8 C         139.8827  140.8564  167.4302 C.ar    1  UNL1        0.0579
      9 C         139.2057  139.9380  168.4039 C.ar    1  UNL1        0.2249
     10 N         138.2348  138.9062  167.9111 N.ar    1  UNL1       -0.2100
     11 C         137.9409  138.7929  166.4445 C.ar    1  UNL1        0.1065
     12 O         139.4996  140.0512  169.8705 O.3     1  UNL1       -0.4599
     13 C         140.9199  140.1214  170.3476 C.3     1  UNL1        0.2159
     14 C         141.5484  141.4519  170.6387 C.3     1  UNL1        0.1505
     15 C         142.6790  141.9496  169.7876 C.3     1  UNL1        0.4014
     16 F         143.8096  142.4471  168.9367 F       1  UNL1       -0.1699
     17 F         143.3948  140.6449  169.9757 F       1  UNL1       -0.1699
     18 F         141.9632  143.2542  169.5995 F       1  UNL1       -0.1699
     19 C         139.1864  139.2555  160.7895 C.3     1  UNL1        0.0476
     20 C         142.3497  137.7659  157.9568 C.ar    1  UNL1        0.1387
     21 C         140.9301  137.9013  157.4917 C.ar    1  UNL1        0.0366
     22 C         139.8756  138.3978  158.4360 C.ar    1  UNL1       -0.0011
     23 C         140.2408  138.7590  159.8453 C.ar    1  UNL1       -0.0202
     24 C         141.6604  138.6236  160.3103 C.ar    1  UNL1        0.0021
     25 C         142.7149  138.1271  159.3660 C.ar    1  UNL1        0.0367
     26 C         142.0257  138.9848  161.7197 C.ar    1  UNL1        0.0384
     27 C         142.2257  140.4225  162.0976 C.ar    1  UNL1        0.1051
     28 N         142.5910  140.7837  163.5070 N.ar    1  UNL1       -0.1927
     29 C         142.7562  139.7071  164.5383 C.ar    1  UNL1        0.3201
     30 N         142.5561  138.2693  164.1603 N.ar    1  UNL1       -0.1927
     31 C         142.1909  137.9082  162.7510 C.ar    1  UNL1        0.1051
     32 O         143.1214  140.0683  165.9476 O.3     1  UNL1       -0.4426
     33 C         143.0423  139.0342  167.0313 C.3     1  UNL1        0.2559
     34 C         143.0405  136.9160  155.6008 C.3     1  UNL1        0.2525
     35 O         143.4041  137.2694  157.0125 O.3     1  UNL1       -0.4714
@<TRIPOS>BOND
     1    34    35    1
     2    35    20    1
     3    20    21   ar
     4    21    22   ar
     5    22    23   ar
     6    23    19    1
     7    19     1    1
     8     1     2    1
     9     2     3   am
    10     3     4    2
    11     3     6    1
    12     6     7   ar
    13     7     8   ar
    14     8     9   ar
    15     9    12    1
    16    12    13    1
    17    13    14    1
    18    14    15    1
    19    15    16    1
    20    15    17    1
    21    15    18    1
    22     9    10   ar
    23    10    11   ar
    24    23    24   ar
    25    24    26    1
    26    26    27   ar
    27    27    28   ar
    28    28    29   ar
    29    29    32    1
    30    32    33    1
    31    29    30   ar
    32    30    31   ar
    33    24    25   ar
    34    25    20   ar
    35    11     6   ar
    36    31    26   ar
    37     2     5    1
@<TRIPOS>MOLECULE
*****
 35 37 0 0 0
SMALL
GASTEIGER

@<TRIPOS>ATOM
      1 C         139.2316  137.5315  165.0339 C.3     1  UNL1        0.0944
      2 N         140.2715  137.9017  164.0183 N.am    1  UNL1       -0.3005
      3 C         139.8952  138.0292  162.5718 C.2     1  UNL1        0.2474
      4 O         138.4791  137.7866  162.1411 O.2     1  UNL1       -0.2701
      5 H         141.2010  138.0609  164.3010 H       1  UNL1        0.1498
      6 C         140.9351  138.3994  161.5561 C.ar    1  UNL1        0.0727
      7 C         142.3768  138.0672  161.8035 C.ar    1  UNL1        0.0109
      8 C         143.4167  138.4374  160.7879 C.ar    1  UNL1        0.0579
      9 C         143.0150  139.1397  159.5248 C.ar    1  UNL1        0.2249
     10 N         141.5732  139.4719  159.2774 N.ar    1  UNL1       -0.2100
     11 C         140.5333  139.1018  160.2931 C.ar    1  UNL1        0.1065
     12 O         144.0549  139.5099  158.5092 O.3     1  UNL1       -0.4599
     13 C         144.2722  140.9496  158.1487 C.3     1  UNL1        0.2159
     14 C         144.3584  141.9881  159.2276 C.3     1  UNL1        0.1505
     15 C         143.2144  142.9316  159.4536 C.3     1  UNL1        0.4014
     16 F         142.0704  143.8751  159.6797 F       1  UNL1       -0.1699
     17 F         142.8613  142.2012  160.7153 F       1  UNL1       -0.1699
     18 F         143.5675  143.6620  158.1920 F       1  UNL1       -0.1699
     19 C         138.6931  138.5728  165.9697 C.3     1  UNL1        0.0476
     20 C         139.0028  142.9334  164.9024 C.ar    1  UNL1        0.1387
     21 C         138.0149  142.0558  164.1926 C.ar    1  UNL1        0.0366
     22 C         137.9117  140.6023  164.5483 C.ar    1  UNL1       -0.0011
     23 C         138.7963  140.0263  165.6140 C.ar    1  UNL1       -0.0202
     24 C         139.7842  140.9039  166.3238 C.ar    1  UNL1        0.0021
     25 C         139.8874  142.3574  165.9680 C.ar    1  UNL1        0.0367
     26 C         140.6690  140.3279  167.3895 C.ar    1  UNL1        0.0384
     27 C         141.9967  139.7346  167.0222 C.ar    1  UNL1        0.1051
     28 N         142.8815  139.1586  168.0879 N.ar    1  UNL1       -0.1927
     29 C         142.4384  139.1760  169.5208 C.ar    1  UNL1        0.3201
     30 N         141.1105  139.7694  169.8881 N.ar    1  UNL1       -0.1927
     31 C         140.2258  140.3453  168.8224 C.ar    1  UNL1        0.1051
     32 O         143.3230  138.6001  170.5864 O.3     1  UNL1       -0.4426
     33 C         143.6210  137.1301  170.6002 C.3     1  UNL1        0.2559
     34 C         138.7164  144.8528  163.1751 C.3     1  UNL1        0.2525
     35 O         139.1060  144.3869  164.5467 O.3     1  UNL1       -0.4714
@<TRIPOS>BOND
     1    34    35    1
     2    35    20    1
     3    20    21   ar
     4    21    22   ar
     5    22    23   ar
     6    23    19    1
     7    19     1    1
     8     1     2    1
     9     2     3   am
    10     3     4    2
    11     3     6    1
    12     6     7   ar
    13     7     8   ar
    14     8     9   ar
    15     9    12    1
    16    12    13    1
    17    13    14    1
    18    14    15    1
    19    15    16    1
    20    15    17    1
    21    15    18    1
    22     9    10   ar
    23    10    11   ar
    24    23    24   ar
    25    24    26    1
    26    26    27   ar
    27    27    28   ar
    28    28    29   ar
    29    29    32    1
    30    32    33    1
    31    29    30   ar
    32    30    31   ar
    33    24    25   ar
    34    25    20   ar
    35    11     6   ar
    36    31    26   ar
    37     2     5    1
@<TRIPOS>MOLECULE
*****
 35 37 0 0 0
SMALL
GASTEIGER

@<TRIPOS>ATOM
      1 C         139.0758  137.8934  165.0488 C.3     1  UNL1        0.0944
      2 N         140.0245  138.0380  163.8960 N.am    1  UNL1       -0.3005
      3 C         139.5019  138.0375  162.4899 C.2     1  UNL1        0.2474
      4 O         138.0306  137.8923  162.2367 O.2     1  UNL1       -0.2701
      5 H         140.9902  138.1334  164.0622 H       1  UNL1        0.1498
      6 C         140.4507  138.1822  161.3371 C.ar    1  UNL1        0.0727
      7 C         139.9527  138.6849  160.0145 C.ar    1  UNL1        0.0109
      8 C         140.9015  138.8296  158.8618 C.ar    1  UNL1        0.0579
      9 C         142.3482  138.4715  159.0315 C.ar    1  UNL1        0.2249
     10 N         142.8462  137.9688  160.3542 N.ar    1  UNL1       -0.2100
     11 C         141.8974  137.8241  161.5070 C.ar    1  UNL1        0.1065
     12 O         143.2969  138.6162  157.8788 O.3     1  UNL1       -0.4599
     13 C         143.7384  139.9801  157.4373 C.3     1  UNL1        0.2159
     14 C         144.2419  140.9687  158.4469 C.3     1  UNL1        0.1505
     15 C         143.8140  142.4043  158.3689 C.3     1  UNL1        0.4014
     16 F         143.3861  143.8398  158.2909 F       1  UNL1       -0.1699
     17 F         142.3795  141.9833  158.4906 F       1  UNL1       -0.1699
     18 F         145.2485  142.8253  158.2471 F       1  UNL1       -0.1699
     19 C         138.3515  139.0949  165.5795 C.3     1  UNL1        0.0476
     20 C         140.5275  142.0806  168.1488 C.ar    1  UNL1        0.1387
     21 C         140.1328  140.7494  168.7163 C.ar    1  UNL1        0.0366
     22 C         139.4075  139.7542  167.8599 C.ar    1  UNL1       -0.0011
     23 C         139.0769  140.0902  166.4359 C.ar    1  UNL1       -0.0202
     24 C         139.4716  141.4213  165.8683 C.ar    1  UNL1        0.0021
     25 C         140.1969  142.4165  166.7248 C.ar    1  UNL1        0.0367
     26 C         139.1410  141.7573  164.4443 C.ar    1  UNL1        0.0384
     27 C         137.7894  142.3080  164.0979 C.ar    1  UNL1        0.1051
     28 N         137.4588  142.6440  162.6739 N.ar    1  UNL1       -0.1927
     29 C         138.4799  142.4293  161.5962 C.ar    1  UNL1        0.3201
     30 N         139.8315  141.8786  161.9426 N.ar    1  UNL1       -0.1927
     31 C         140.1621  141.5427  163.3666 C.ar    1  UNL1        0.1051
     32 O         138.1494  142.7653  160.1722 O.3     1  UNL1       -0.4426
     33 C         139.2468  143.1044  159.2075 C.3     1  UNL1        0.2559
     34 C         141.8330  142.6506  170.3214 C.3     1  UNL1        0.2525
     35 O         141.2528  143.0758  169.0052 O.3     1  UNL1       -0.4714
@<TRIPOS>BOND
     1    34    35    1
     2    35    20    1
     3    20    21   ar
     4    21    22   ar
     5    22    23   ar
     6    23    19    1
     7    19     1    1
     8     1     2    1
     9     2     3   am
    10     3     4    2
    11     3     6    1
    12     6     7   ar
    13     7     8   ar
    14     8     9   ar
    15     9    12    1
    16    12    13    1
    17    13    14    1
    18    14    15    1
    19    15    16    1
    20    15    17    1
    21    15    18    1
    22     9    10   ar
    23    10    11   ar
    24    23    24   ar
    25    24    26    1
    26    26    27   ar
    27    27    28   ar
    28    28    29   ar
    29    29    32    1
    30    32    33    1
    31    29    30   ar
    32    30    31   ar
    33    24    25   ar
    34    25    20   ar
    35    11     6   ar
    36    31    26   ar
    37     2     5    1
@<TRIPOS>MOLECULE
*****
 35 37 0 0 0
SMALL
GASTEIGER

@<TRIPOS>ATOM
      1 C         139.2265  138.0847  160.8389 C.3     1  UNL1        0.0944
      2 N         138.9776  138.5612  162.2393 N.am    1  UNL1       -0.3005
      3 C         139.7884  138.0095  163.3744 C.2     1  UNL1        0.2474
      4 O         140.8480  136.9815  163.1091 O.2     1  UNL1       -0.2701
      5 H         138.2822  139.2359  162.4134 H       1  UNL1        0.1498
      6 C         139.5396  138.4859  164.7748 C.ar    1  UNL1        0.0727
      7 C         138.2849  138.0840  165.4919 C.ar    1  UNL1        0.0109
      8 C         138.0361  138.5604  166.8923 C.ar    1  UNL1        0.0579
      9 C         139.0418  139.4387  167.5756 C.ar    1  UNL1        0.2249
     10 N         140.2966  139.8407  166.8584 N.ar    1  UNL1       -0.2100
     11 C         140.5454  139.3643  165.4580 C.ar    1  UNL1        0.1065
     12 O         138.7930  139.9151  168.9759 O.3     1  UNL1       -0.4599
     13 C         139.8839  140.6078  169.7375 C.3     1  UNL1        0.2159
     14 C         139.7410  142.0556  170.1028 C.3     1  UNL1        0.1505
     15 C         140.9518  142.9397  170.1520 C.3     1  UNL1        0.4014
     16 F         142.1624  143.8239  170.2011 F       1  UNL1       -0.1699
     17 F         140.2531  143.9445  169.2846 F       1  UNL1       -0.1699
     18 F         141.6504  141.9350  171.0193 F       1  UNL1       -0.1699
     19 C         139.3855  139.0777  159.7260 C.3     1  UNL1        0.0476
     20 C         143.4825  140.0236  158.1227 C.ar    1  UNL1        0.1387
     21 C         142.8234  138.7216  157.7757 C.ar    1  UNL1        0.0366
     22 C         141.4578  138.4063  158.3101 C.ar    1  UNL1       -0.0011
     23 C         140.7512  139.3930  159.1916 C.ar    1  UNL1       -0.0202
     24 C         141.4102  140.6950  159.5386 C.ar    1  UNL1        0.0021
     25 C         142.7758  141.0103  159.0042 C.ar    1  UNL1        0.0367
     26 C         140.7035  141.6818  160.4201 C.ar    1  UNL1        0.0384
     27 C         140.9014  141.6359  161.9063 C.ar    1  UNL1        0.1051
     28 N         140.1947  142.6227  162.7878 N.ar    1  UNL1       -0.1927
     29 C         139.2903  143.6553  162.1831 C.ar    1  UNL1        0.3201
     30 N         139.0925  143.7012  160.6969 N.ar    1  UNL1       -0.1927
     31 C         139.7991  142.7144  159.8154 C.ar    1  UNL1        0.1051
     32 O         138.5837  144.6421  163.0645 O.3     1  UNL1       -0.4426
     33 C         138.8433  144.6483  164.5419 C.3     1  UNL1        0.2559
     34 C         145.0886  140.3557  156.1078 C.3     1  UNL1        0.2525
     35 O         144.8481  140.3389  157.5883 O.3     1  UNL1       -0.4714
@<TRIPOS>BOND
     1    34    35    1
     2    35    20    1
     3    20    21   ar
     4    21    22   ar
     5    22    23   ar
     6    23    19    1
     7    19     1    1
     8     1     2    1
     9     2     3   am
    10     3     4    2
    11     3     6    1
    12     6     7   ar
    13     7     8   ar
    14     8     9   ar
    15     9    12    1
    16    12    13    1
    17    13    14    1
    18    14    15    1
    19    15    16    1
    20    15    17    1
    21    15    18    1
    22     9    10   ar
    23    10    11   ar
    24    23    24   ar
    25    24    26    1
    26    26    27   ar
    27    27    28   ar
    28    28    29   ar
    29    29    32    1
    30    32    33    1
    31    29    30   ar
    32    30    31   ar
    33    24    25   ar
    34    25    20   ar
    35    11     6   ar
    36    31    26   ar
    37     2     5    1
@<TRIPOS>MOLECULE
*****
 35 37 0 0 0
SMALL
GASTEIGER

@<TRIPOS>ATOM
      1 C         145.3420  142.4188  164.1713 C.3     1  UNL1        0.0944
      2 N         144.6907  141.8099  162.9650 N.am    1  UNL1       -0.3005
      3 C         144.5796  140.3188  162.8450 C.2     1  UNL1        0.2474
      4 O         145.1199  139.4366  163.9312 O.2     1  UNL1       -0.2701
      5 H         144.3361  142.3889  162.2521 H       1  UNL1        0.1498
      6 C         143.9283  139.7099  161.6388 C.ar    1  UNL1        0.0727
      7 C         143.8090  138.2192  161.5230 C.ar    1  UNL1        0.0109
      8 C         143.1577  137.6103  160.3167 C.ar    1  UNL1        0.0579
      9 C         142.6256  138.4922  159.2262 C.ar    1  UNL1        0.2249
     10 N         142.7449  139.9830  159.3420 N.ar    1  UNL1       -0.2100
     11 C         143.3962  140.5919  160.5482 C.ar    1  UNL1        0.1065
     12 O         141.9743  137.8833  158.0200 O.3     1  UNL1       -0.4599
     13 C         142.6881  136.8204  157.2385 C.3     1  UNL1        0.2159
     14 C         142.8785  136.9777  155.7590 C.3     1  UNL1        0.1505
     15 C         142.9386  135.7655  154.8774 C.3     1  UNL1        0.4014
     16 F         142.9987  134.5534  153.9960 F       1  UNL1       -0.1699
     17 F         144.3482  135.5115  155.3229 F       1  UNL1       -0.1699
     18 F         141.5290  136.0196  154.4320 F       1  UNL1       -0.1699
     19 C         144.6046  143.4389  164.9872 C.3     1  UNL1        0.0476
     20 C         140.3939  144.5835  163.8873 C.ar    1  UNL1        0.1387
     21 C         141.5524  145.3399  163.3079 C.ar    1  UNL1        0.0366
     22 C         142.9560  144.9584  163.6746 C.ar    1  UNL1       -0.0011
     23 C         143.2011  143.8204  164.6205 C.ar    1  UNL1       -0.0202
     24 C         142.0426  143.0640  165.1999 C.ar    1  UNL1        0.0021
     25 C         140.6390  143.4456  164.8332 C.ar    1  UNL1        0.0367
     26 C         142.2876  141.9260  166.1459 C.ar    1  UNL1        0.0384
     27 C         142.2579  140.5131  165.6432 C.ar    1  UNL1        0.1051
     28 N         142.5029  139.3750  166.5892 N.ar    1  UNL1       -0.1927
     29 C         142.7777  139.6500  168.0380 C.ar    1  UNL1        0.3201
     30 N         142.8075  141.0630  168.5407 N.ar    1  UNL1       -0.1927
     31 C         142.5624  142.2009  167.5947 C.ar    1  UNL1        0.1051
     32 O         143.0228  138.5121  168.9840 O.3     1  UNL1       -0.4426
     33 C         142.5664  138.6103  170.4095 C.3     1  UNL1        0.2559
     34 C         137.9842  143.9009  163.1965 C.3     1  UNL1        0.2525
     35 O         138.9904  144.9651  163.5206 O.3     1  UNL1       -0.4714
@<TRIPOS>BOND
     1    34    35    1
     2    35    20    1
     3    20    21   ar
     4    21    22   ar
     5    22    23   ar
     6    23    19    1
     7    19     1    1
     8     1     2    1
     9     2     3   am
    10     3     4    2
    11     3     6    1
    12     6     7   ar
    13     7     8   ar
    14     8     9   ar
    15     9    12    1
    16    12    13    1
    17    13    14    1
    18    14    15    1
    19    15    16    1
    20    15    17    1
    21    15    18    1
    22     9    10   ar
    23    10    11   ar
    24    23    24   ar
    25    24    26    1
    26    26    27   ar
    27    27    28   ar
    28    28    29   ar
    29    29    32    1
    30    32    33    1
    31    29    30   ar
    32    30    31   ar
    33    24    25   ar
    34    25    20   ar
    35    11     6   ar
    36    31    26   ar
    37     2     5    1
