@<TRIPOS>MOLECULE
*****
 36 39 0 0 0
SMALL
GASTEIGER

@<TRIPOS>ATOM
      1 C         140.9290  141.5544  160.1303 C.3     1  UNL1        0.0545
      2 C         142.3083  141.3613  159.5733 C.3     1  UNL1        0.0162
      3 C         142.8756  140.1051  160.1651 C.3     1  UNL1        0.0100
      4 C         141.8469  139.5219  161.0879 C.3     1  UNL1        0.0704
      5 C         140.6439  140.4175  161.0664 C.3     1  UNL1        0.0243
      6 C         141.0342  138.7162  162.0575 C.2     1  UNL1        0.2248
      7 O         140.3791  137.4429  161.6108 O.2     1  UNL1       -0.2749
      8 N         140.8765  139.1837  163.4741 N.am    1  UNL1       -0.2760
      9 C         141.5316  140.4570  163.9209 C.3     1  UNL1        0.1148
     10 C         141.3740  140.9246  165.3374 C.3     1  UNL1        0.1123
     11 N         140.5613  140.1190  166.3071 N.pl3   1  UNL1       -0.3040
     12 C         139.9062  138.8458  165.8603 C.3     1  UNL1        0.1123
     13 C         140.0638  138.3781  164.4438 C.3     1  UNL1        0.1148
     14 C         140.4037  140.5867  167.7236 C.ar    1  UNL1        0.0510
     15 C         139.2653  140.0798  168.5585 C.ar    1  UNL1        0.0352
     16 C         139.1077  140.5474  169.9751 C.ar    1  UNL1        0.1000
     17 N         140.0885  141.5220  170.5566 N.ar    1  UNL1       -0.2398
     18 C         141.2269  142.0289  169.7217 C.ar    1  UNL1        0.1538
     19 C         141.3845  141.5613  168.3051 C.ar    1  UNL1        0.0376
     20 C         142.2076  143.0035  170.3033 C.3     1  UNL1        0.4349
     21 F         143.1884  143.9781  170.8849 F       1  UNL1       -0.1644
     22 F         143.1849  141.8875  170.5254 F       1  UNL1       -0.1644
     23 F         141.2303  144.1196  170.0811 F       1  UNL1       -0.1644
     24 C         142.8800  138.4578  161.3121 C.3     1  UNL1        0.0082
     25 C         143.1187  137.4114  160.2642 C.3     1  UNL1        0.0005
     26 C         143.5025  138.2530  162.0465 C.3     1  UNL1        0.0005
     27 N         139.9983  142.6857  159.8078 N.3     1  UNL1       -0.2975
     28 H         140.4217  143.2053  159.0390 H       1  UNL1        0.1232
     29 C         138.4880  143.4307  161.7862 C.3     1  UNL1        0.1591
     30 C         138.1328  144.4340  162.8431 C.3     1  UNL1        0.1729
     31 O         138.9325  145.6958  162.9785 O.3     1  UNL1       -0.3511
     32 C         140.0876  145.9542  162.0570 C.3     1  UNL1        0.1437
     33 C         140.4428  144.9508  161.0002 C.3     1  UNL1        0.0503
     34 C         139.6430  143.6891  160.8648 C.3     1  UNL1        0.0865
     35 C         137.4917  141.2744  162.8387 C.3     1  UNL1        0.1742
     36 O         137.6883  142.1689  161.6508 O.3     1  UNL1       -0.3496
@<TRIPOS>BOND
     1    35    36    1
     2    29    36    1
     3    29    30    1
     4    30    31    1
     5    31    32    1
     6    32    33    1
     7    33    34    1
     8    34    27    1
     9     1    27    1
    10     1     2    1
    11     2     3    1
    12     3     4    1
    13     4     6    1
    14     6     7    2
    15     6     8   am
    16     8     9    1
    17     9    10    1
    18    10    11    1
    19    11    14    1
    20    14    15   ar
    21    15    16   ar
    22    16    17   ar
    23    17    18   ar
    24    18    20    1
    25    20    21    1
    26    20    22    1
    27    20    23    1
    28    18    19   ar
    29    11    12    1
    30    12    13    1
    31     4    24    1
    32    24    25    1
    33    24    26    1
    34     4     5    1
    35    34    29    1
    36     5     1    1
    37    13     8    1
    38    19    14   ar
    39    27    28    1
@<TRIPOS>MOLECULE
*****
 36 39 0 0 0
SMALL
GASTEIGER

@<TRIPOS>ATOM
      1 C         139.7238  141.1179  160.1987 C.3     1  UNL1        0.0545
      2 C         139.4282  139.8155  159.5158 C.3     1  UNL1        0.0162
      3 C         140.5547  138.8705  159.8122 C.3     1  UNL1        0.0100
      4 C         141.5466  139.5889  160.6784 C.3     1  UNL1        0.0704
      5 C         141.0330  140.9778  160.9172 C.3     1  UNL1        0.0243
      6 C         142.6960  140.0364  161.5319 C.2     1  UNL1        0.2248
      7 O         144.0142  140.3713  160.8993 O.2     1  UNL1       -0.2749
      8 N         142.5272  140.1492  163.0181 N.am    1  UNL1       -0.2760
      9 C         141.2090  139.8144  163.6507 C.3     1  UNL1        0.1148
     10 C         141.0401  139.9272  165.1369 C.3     1  UNL1        0.1123
     11 N         142.1894  140.3748  165.9905 N.pl3   1  UNL1       -0.3040
     12 C         143.5076  140.7096  165.3579 C.3     1  UNL1        0.1123
     13 C         143.6765  140.5968  163.8717 C.3     1  UNL1        0.1148
     14 C         142.0206  140.4875  167.4767 C.ar    1  UNL1        0.0510
     15 C         142.6054  139.4422  168.3795 C.ar    1  UNL1        0.0352
     16 C         142.4366  139.5550  169.8657 C.ar    1  UNL1        0.1000
     17 N         141.6827  140.7132  170.4490 N.ar    1  UNL1       -0.2398
     18 C         141.0978  141.7586  169.5463 C.ar    1  UNL1        0.1538
     19 C         141.2667  141.6458  168.0601 C.ar    1  UNL1        0.0376
     20 C         140.3440  142.9167  170.1297 C.3     1  UNL1        0.4349
     21 F         139.5902  144.0749  170.7132 F       1  UNL1       -0.1644
     22 F         141.5478  143.7926  169.9463 F       1  UNL1       -0.1644
     23 F         139.1402  142.0408  170.3131 F       1  UNL1       -0.1644
     24 C         142.3004  138.2935  160.6180 C.3     1  UNL1        0.0082
     25 C         142.8158  137.7861  159.3038 C.3     1  UNL1        0.0005
     26 C         142.5685  137.6265  161.2902 C.3     1  UNL1        0.0005
     27 N         138.8616  142.3450  160.1683 N.3     1  UNL1       -0.2975
     28 H         139.1269  142.8708  159.3356 H       1  UNL1        0.1232
     29 C         138.0240  143.0703  162.5184 C.3     1  UNL1        0.1591
     30 C         138.0518  144.0350  163.6666 C.3     1  UNL1        0.1729
     31 O         138.9448  145.2390  163.6133 O.3     1  UNL1       -0.3511
     32 C         139.8101  145.4784  162.4116 C.3     1  UNL1        0.1437
     33 C         139.7823  144.5137  161.2634 C.3     1  UNL1        0.0503
     34 C         138.8893  143.3097  161.3167 C.3     1  UNL1        0.0865
     35 C         137.6189  140.5982  163.2071 C.3     1  UNL1        0.1742
     36 O         137.1310  141.8663  162.5717 O.3     1  UNL1       -0.3496
@<TRIPOS>BOND
     1    35    36    1
     2    29    36    1
     3    29    30    1
     4    30    31    1
     5    31    32    1
     6    32    33    1
     7    33    34    1
     8    34    27    1
     9     1    27    1
    10     1     2    1
    11     2     3    1
    12     3     4    1
    13     4     6    1
    14     6     7    2
    15     6     8   am
    16     8     9    1
    17     9    10    1
    18    10    11    1
    19    11    14    1
    20    14    15   ar
    21    15    16   ar
    22    16    17   ar
    23    17    18   ar
    24    18    20    1
    25    20    21    1
    26    20    22    1
    27    20    23    1
    28    18    19   ar
    29    11    12    1
    30    12    13    1
    31     4    24    1
    32    24    25    1
    33    24    26    1
    34     4     5    1
    35    34    29    1
    36     5     1    1
    37    13     8    1
    38    19    14   ar
    39    27    28    1
@<TRIPOS>MOLECULE
*****
 36 39 0 0 0
SMALL
GASTEIGER

@<TRIPOS>ATOM
      1 C         142.7572  140.0117  164.9352 C.3     1  UNL1        0.0545
      2 C         142.7905  138.5177  165.0655 C.3     1  UNL1        0.0162
      3 C         141.3975  138.0029  164.8545 C.3     1  UNL1        0.0100
      4 C         140.5033  139.1786  164.5937 C.3     1  UNL1        0.0704
      5 C         141.3437  140.4201  164.6436 C.3     1  UNL1        0.0243
      6 C         139.3846  140.1367  164.3102 C.2     1  UNL1        0.2248
      7 O         138.3695  140.4400  165.3720 O.2     1  UNL1       -0.2749
      8 N         139.2810  140.7917  162.9647 N.am    1  UNL1       -0.2760
      9 C         140.2962  140.4885  161.9028 C.3     1  UNL1        0.1148
     10 C         140.1926  141.1434  160.5573 C.3     1  UNL1        0.1123
     11 N         139.0739  142.1015  160.2736 N.pl3   1  UNL1       -0.3040
     12 C         138.0588  142.4048  161.3355 C.3     1  UNL1        0.1123
     13 C         138.1623  141.7499  162.6810 C.3     1  UNL1        0.1148
     14 C         138.9704  142.7564  158.9281 C.ar    1  UNL1        0.0510
     15 C         139.9818  143.7838  158.5142 C.ar    1  UNL1        0.0352
     16 C         139.8783  144.4388  157.1687 C.ar    1  UNL1        0.1000
     17 N         138.7633  144.0662  156.2371 N.ar    1  UNL1       -0.2398
     18 C         137.7518  143.0387  156.6510 C.ar    1  UNL1        0.1538
     19 C         137.8553  142.3838  157.9965 C.ar    1  UNL1        0.0376
     20 C         136.6368  142.6662  155.7193 C.3     1  UNL1        0.4349
     21 F         135.5218  142.2936  154.7877 F       1  UNL1       -0.1644
     22 F         137.0058  143.8091  154.8207 F       1  UNL1       -0.1644
     23 F         136.2678  141.5233  156.6180 F       1  UNL1       -0.1644
     24 C         139.4291  138.1375  164.4846 C.3     1  UNL1        0.0082
     25 C         139.0110  137.6296  163.1366 C.3     1  UNL1        0.0005
     26 C         138.8746  137.6559  165.1398 C.3     1  UNL1        0.0005
     27 N         143.9314  140.9350  165.0724 N.3     1  UNL1       -0.2975
     28 H         143.9481  141.2479  166.0431 H       1  UNL1        0.1232
     29 C         144.5639  142.0727  162.8238 C.3     1  UNL1        0.1591
     30 C         144.6540  143.3031  161.9708 C.3     1  UNL1        0.1729
     31 O         144.2017  144.6265  162.5131 O.3     1  UNL1       -0.3511
     32 C         143.6592  144.7194  163.9085 C.3     1  UNL1        0.1437
     33 C         143.5691  143.4889  164.7615 C.3     1  UNL1        0.0503
     34 C         144.0215  142.1656  164.2192 C.3     1  UNL1        0.0865
     35 C         144.0906  139.9315  161.4305 C.3     1  UNL1        0.1742
     36 O         145.0163  140.7493  162.2815 O.3     1  UNL1       -0.3496
@<TRIPOS>BOND
     1    35    36    1
     2    29    36    1
     3    29    30    1
     4    30    31    1
     5    31    32    1
     6    32    33    1
     7    33    34    1
     8    34    27    1
     9     1    27    1
    10     1     2    1
    11     2     3    1
    12     3     4    1
    13     4     6    1
    14     6     7    2
    15     6     8   am
    16     8     9    1
    17     9    10    1
    18    10    11    1
    19    11    14    1
    20    14    15   ar
    21    15    16   ar
    22    16    17   ar
    23    17    18   ar
    24    18    20    1
    25    20    21    1
    26    20    22    1
    27    20    23    1
    28    18    19   ar
    29    11    12    1
    30    12    13    1
    31     4    24    1
    32    24    25    1
    33    24    26    1
    34     4     5    1
    35    34    29    1
    36     5     1    1
    37    13     8    1
    38    19    14   ar
    39    27    28    1
@<TRIPOS>MOLECULE
*****
 36 39 0 0 0
SMALL
GASTEIGER

@<TRIPOS>ATOM
      1 C         140.0241  142.4602  160.1058 C.3     1  UNL1        0.0545
      2 C         139.9776  141.4314  159.0151 C.3     1  UNL1        0.0162
      3 C         141.3401  140.8146  158.9013 C.3     1  UNL1        0.0100
      4 C         142.2287  141.4620  159.9217 C.3     1  UNL1        0.0704
      5 C         141.4154  142.4791  160.6660 C.3     1  UNL1        0.0243
      6 C         143.3357  141.9168  160.8259 C.2     1  UNL1        0.2248
      7 O         144.5234  142.6338  160.2556 O.2     1  UNL1       -0.2749
      8 N         143.2550  141.6546  162.3007 N.am    1  UNL1       -0.2760
      9 C         142.0673  140.9377  162.8710 C.3     1  UNL1        0.1148
     10 C         141.9866  140.6754  164.3457 C.3     1  UNL1        0.1123
     11 N         143.0935  141.1302  165.2501 N.pl3   1  UNL1       -0.3040
     12 C         144.2812  141.8471  164.6797 C.3     1  UNL1        0.1123
     13 C         144.3620  142.1094  163.2050 C.3     1  UNL1        0.1148
     14 C         143.0128  140.8680  166.7248 C.ar    1  UNL1        0.0510
     15 C         142.7314  139.4825  167.2259 C.ar    1  UNL1        0.0352
     16 C         142.6506  139.2203  168.7006 C.ar    1  UNL1        0.1000
     17 N         142.8513  140.3436  169.6741 N.ar    1  UNL1       -0.2398
     18 C         143.1326  141.7292  169.1730 C.ar    1  UNL1        0.1538
     19 C         143.2134  141.9914  167.6983 C.ar    1  UNL1        0.0376
     20 C         143.3333  142.8525  170.1466 C.3     1  UNL1        0.4349
     21 F         143.5339  143.9758  171.1202 F       1  UNL1       -0.1644
     22 F         141.8574  143.1206  170.1414 F       1  UNL1       -0.1644
     23 F         144.8091  142.5844  170.1518 F       1  UNL1       -0.1644
     24 C         143.2734  140.5401  159.3664 C.3     1  UNL1        0.0082
     25 C         143.6079  139.2663  160.0844 C.3     1  UNL1        0.0005
     26 C         143.8521  140.5628  158.5705 C.3     1  UNL1        0.0005
     27 N         138.8801  143.3192  160.5569 N.3     1  UNL1       -0.2975
     28 H         139.0297  144.2442  160.1540 H       1  UNL1        0.1232
     29 C         137.8175  142.5158  162.7875 C.3     1  UNL1        0.1591
     30 C         137.5630  142.7174  164.2519 C.3     1  UNL1        0.1729
     31 O         138.1167  143.9239  164.9503 O.3     1  UNL1       -0.3511
     32 C         138.9248  144.9289  164.1842 C.3     1  UNL1        0.1437
     33 C         139.1793  144.7273  162.7198 C.3     1  UNL1        0.0503
     34 C         138.6256  143.5207  162.0214 C.3     1  UNL1        0.0865
     35 C         137.9212  139.9726  162.2663 C.3     1  UNL1        0.1742
     36 O         137.2638  141.3092  162.0892 O.3     1  UNL1       -0.3496
@<TRIPOS>BOND
     1    35    36    1
     2    29    36    1
     3    29    30    1
     4    30    31    1
     5    31    32    1
     6    32    33    1
     7    33    34    1
     8    34    27    1
     9     1    27    1
    10     1     2    1
    11     2     3    1
    12     3     4    1
    13     4     6    1
    14     6     7    2
    15     6     8   am
    16     8     9    1
    17     9    10    1
    18    10    11    1
    19    11    14    1
    20    14    15   ar
    21    15    16   ar
    22    16    17   ar
    23    17    18   ar
    24    18    20    1
    25    20    21    1
    26    20    22    1
    27    20    23    1
    28    18    19   ar
    29    11    12    1
    30    12    13    1
    31     4    24    1
    32    24    25    1
    33    24    26    1
    34     4     5    1
    35    34    29    1
    36     5     1    1
    37    13     8    1
    38    19    14   ar
    39    27    28    1
@<TRIPOS>MOLECULE
*****
 36 39 0 0 0
SMALL
GASTEIGER

@<TRIPOS>ATOM
      1 C         139.9520  140.9376  159.8077 C.3     1  UNL1        0.0545
      2 C         139.0012  141.8807  159.1321 C.3     1  UNL1        0.0162
      3 C         139.4626  143.2810  159.4082 C.3     1  UNL1        0.0100
      4 C         140.6986  143.2034  160.2545 C.3     1  UNL1        0.0704
      5 C         141.0011  141.7551  160.5014 C.3     1  UNL1        0.0243
      6 C         141.9250  143.4388  161.0854 C.2     1  UNL1        0.2248
      7 O         143.1729  143.9722  160.4466 O.2     1  UNL1       -0.2749
      8 N         141.9035  143.1407  162.5554 N.am    1  UNL1       -0.2760
      9 C         140.6556  142.6072  163.1943 C.3     1  UNL1        0.1148
     10 C         140.6340  142.3091  164.6642 C.3     1  UNL1        0.1123
     11 N         141.8603  142.5444  165.4953 N.pl3   1  UNL1       -0.3040
     12 C         143.1082  143.0779  164.8564 C.3     1  UNL1        0.1123
     13 C         143.1298  143.3760  163.3865 C.3     1  UNL1        0.1148
     14 C         141.8387  142.2463  166.9652 C.ar    1  UNL1        0.0510
     15 C         143.0797  142.4333  167.7867 C.ar    1  UNL1        0.0352
     16 C         143.0581  142.1352  169.2566 C.ar    1  UNL1        0.1000
     17 N         141.7955  141.6501  169.9050 N.ar    1  UNL1       -0.2398
     18 C         140.5544  141.4631  169.0835 C.ar    1  UNL1        0.1538
     19 C         140.5760  141.7612  167.6135 C.ar    1  UNL1        0.0376
     20 C         139.2919  140.9779  169.7319 C.3     1  UNL1        0.4349
     21 F         138.0293  140.4928  170.3803 F       1  UNL1       -0.1644
     22 F         139.3888  139.6950  168.9607 F       1  UNL1       -0.1644
     23 F         139.1949  142.2608  170.5030 F       1  UNL1       -0.1644
     24 C         140.6525  144.7008  160.1813 C.3     1  UNL1        0.0082
     25 C         140.8691  145.3947  158.8691 C.3     1  UNL1        0.0005
     26 C         140.5009  145.4134  160.8431 C.3     1  UNL1        0.0005
     27 N         139.8685  139.4400  159.7923 N.3     1  UNL1       -0.2975
     28 H         138.9896  139.1988  159.3343 H       1  UNL1        0.1232
     29 C         141.1886  138.0312  161.5309 C.3     1  UNL1        0.1591
     30 C         141.2299  137.2646  162.8195 C.3     1  UNL1        0.1729
     31 O         139.9924  137.1400  163.6581 O.3     1  UNL1       -0.3511
     32 C         138.7137  137.7820  163.2081 C.3     1  UNL1        0.1437
     33 C         138.6724  138.5487  161.9196 C.3     1  UNL1        0.0503
     34 C         139.9098  138.6733  161.0810 C.3     1  UNL1        0.0865
     35 C         143.7782  138.0067  161.3240 C.3     1  UNL1        0.1742
     36 O         142.4260  138.1558  160.6923 O.3     1  UNL1       -0.3496
@<TRIPOS>BOND
     1    35    36    1
     2    29    36    1
     3    29    30    1
     4    30    31    1
     5    31    32    1
     6    32    33    1
     7    33    34    1
     8    34    27    1
     9     1    27    1
    10     1     2    1
    11     2     3    1
    12     3     4    1
    13     4     6    1
    14     6     7    2
    15     6     8   am
    16     8     9    1
    17     9    10    1
    18    10    11    1
    19    11    14    1
    20    14    15   ar
    21    15    16   ar
    22    16    17   ar
    23    17    18   ar
    24    18    20    1
    25    20    21    1
    26    20    22    1
    27    20    23    1
    28    18    19   ar
    29    11    12    1
    30    12    13    1
    31     4    24    1
    32    24    25    1
    33    24    26    1
    34     4     5    1
    35    34    29    1
    36     5     1    1
    37    13     8    1
    38    19    14   ar
    39    27    28    1
@<TRIPOS>MOLECULE
*****
 36 39 0 0 0
SMALL
GASTEIGER

@<TRIPOS>ATOM
      1 C         142.8240  140.0186  164.9574 C.3     1  UNL1        0.0545
      2 C         142.8457  138.5258  165.1018 C.3     1  UNL1        0.0162
      3 C         141.4449  138.0219  164.9177 C.3     1  UNL1        0.0100
      4 C         140.5575  139.2034  164.6595 C.3     1  UNL1        0.0704
      5 C         141.4099  140.4374  164.6840 C.3     1  UNL1        0.0243
      6 C         139.4433  140.1691  164.3842 C.2     1  UNL1        0.2248
      7 O         138.4687  140.5191  165.4694 O.2     1  UNL1       -0.2749
      8 N         139.3036  140.7849  163.0235 N.am    1  UNL1       -0.2760
      9 C         140.2781  140.4349  161.9383 C.3     1  UNL1        0.1148
     10 C         140.1385  141.0506  160.5776 C.3     1  UNL1        0.1123
     11 N         139.0243  142.0163  160.3022 N.pl3   1  UNL1       -0.3040
     12 C         138.0498  142.3663  161.3874 C.3     1  UNL1        0.1123
     13 C         138.1894  141.7506  162.7481 C.3     1  UNL1        0.1148
     14 C         138.8847  142.6321  158.9415 C.ar    1  UNL1        0.0510
     15 C         137.8220  142.1434  158.0026 C.ar    1  UNL1        0.0352
     16 C         137.6824  142.7591  156.6419 C.ar    1  UNL1        0.1000
     17 N         138.6056  143.8636  156.2203 N.ar    1  UNL1       -0.2398
     18 C         139.6684  144.3523  157.1592 C.ar    1  UNL1        0.1538
     19 C         139.8080  143.7366  158.5199 C.ar    1  UNL1        0.0376
     20 C         140.5915  145.4568  156.7375 C.3     1  UNL1        0.4349
     21 F         141.5147  146.5613  156.3158 F       1  UNL1       -0.1644
     22 F         139.8711  146.4066  157.6479 F       1  UNL1       -0.1644
     23 F         141.3120  144.5070  155.8271 F       1  UNL1       -0.1644
     24 C         139.4722  138.1712  164.5775 C.3     1  UNL1        0.0082
     25 C         139.1255  137.5508  163.2565 C.3     1  UNL1        0.0005
     26 C         138.8707  137.7576  165.2376 C.3     1  UNL1        0.0005
     27 N         144.0086  140.9323  165.0671 N.3     1  UNL1       -0.2975
     28 H         144.0536  141.2408  166.0382 H       1  UNL1        0.1232
     29 C         144.5920  142.0750  162.8078 C.3     1  UNL1        0.1591
     30 C         144.6690  143.3084  161.9577 C.3     1  UNL1        0.1729
     31 O         144.2397  144.6326  162.5166 O.3     1  UNL1       -0.3511
     32 C         143.7334  144.7233  163.9257 C.3     1  UNL1        0.1437
     33 C         143.6564  143.4899  164.7758 C.3     1  UNL1        0.0503
     34 C         144.0857  142.1658  164.2169 C.3     1  UNL1        0.0865
     35 C         144.0939  139.9755  161.3608 C.3     1  UNL1        0.1742
     36 O         145.0212  140.7509  162.2489 O.3     1  UNL1       -0.3496
@<TRIPOS>BOND
     1    35    36    1
     2    29    36    1
     3    29    30    1
     4    30    31    1
     5    31    32    1
     6    32    33    1
     7    33    34    1
     8    34    27    1
     9     1    27    1
    10     1     2    1
    11     2     3    1
    12     3     4    1
    13     4     6    1
    14     6     7    2
    15     6     8   am
    16     8     9    1
    17     9    10    1
    18    10    11    1
    19    11    14    1
    20    14    15   ar
    21    15    16   ar
    22    16    17   ar
    23    17    18   ar
    24    18    20    1
    25    20    21    1
    26    20    22    1
    27    20    23    1
    28    18    19   ar
    29    11    12    1
    30    12    13    1
    31     4    24    1
    32    24    25    1
    33    24    26    1
    34     4     5    1
    35    34    29    1
    36     5     1    1
    37    13     8    1
    38    19    14   ar
    39    27    28    1
@<TRIPOS>MOLECULE
*****
 36 39 0 0 0
SMALL
GASTEIGER

@<TRIPOS>ATOM
      1 C         142.0763  141.4556  166.2569 C.3     1  UNL1        0.0545
      2 C         143.4188  142.1117  166.1256 C.3     1  UNL1        0.0162
      3 C         143.2812  143.2626  165.1735 C.3     1  UNL1        0.0100
      4 C         141.8536  143.3178  164.7164 C.3     1  UNL1        0.0704
      5 C         141.1090  142.2011  165.3860 C.3     1  UNL1        0.0243
      6 C         140.5236  143.6197  164.0921 C.2     1  UNL1        0.2248
      7 O         139.5780  144.5705  164.7642 O.2     1  UNL1       -0.2749
      8 N         140.1390  142.9707  162.7955 N.am    1  UNL1       -0.2760
      9 C         141.0846  142.0198  162.1234 C.3     1  UNL1        0.1148
     10 C         140.7002  141.3708  160.8269 C.3     1  UNL1        0.1123
     11 N         139.3701  141.6726  160.2025 N.pl3   1  UNL1       -0.3040
     12 C         138.4245  142.6234  160.8746 C.3     1  UNL1        0.1123
     13 C         138.8090  143.2724  162.1711 C.3     1  UNL1        0.1148
     14 C         138.9857  141.0235  158.9060 C.ar    1  UNL1        0.0510
     15 C         139.7315  139.8156  158.4218 C.ar    1  UNL1        0.0352
     16 C         139.3470  139.1665  157.1253 C.ar    1  UNL1        0.1000
     17 N         138.2167  139.7255  156.3130 N.ar    1  UNL1       -0.2398
     18 C         137.4709  140.9336  156.7971 C.ar    1  UNL1        0.1538
     19 C         137.8553  141.5826  158.0936 C.ar    1  UNL1        0.0376
     20 C         136.3406  141.4925  155.9847 C.3     1  UNL1        0.4349
     21 F         135.2103  142.0515  155.1724 F       1  UNL1       -0.1644
     22 F         137.3083  142.3592  155.2348 F       1  UNL1       -0.1644
     23 F         135.3730  140.6258  156.7347 F       1  UNL1       -0.1644
     24 C         142.3202  144.4976  163.9163 C.3     1  UNL1        0.0082
     25 C         143.5859  144.4082  163.1163 C.3     1  UNL1        0.0005
     26 C         141.9702  145.4058  163.7696 C.3     1  UNL1        0.0005
     27 N         141.7572  140.2634  167.1095 N.3     1  UNL1       -0.2975
     28 H         141.1565  139.6556  166.5527 H       1  UNL1        0.1232
     29 C         141.8723  140.8789  169.6310 C.3     1  UNL1        0.1591
     30 C         141.1927  141.0643  170.9553 C.3     1  UNL1        0.1729
     31 O         139.7183  140.8194  171.0823 O.3     1  UNL1       -0.3511
     32 C         138.9235  140.3893  169.8852 C.3     1  UNL1        0.1437
     33 C         139.6032  140.2040  168.5609 C.3     1  UNL1        0.0503
     34 C         141.0776  140.4488  168.4339 C.3     1  UNL1        0.0865
     35 C         143.9286  142.4380  169.9333 C.3     1  UNL1        0.1742
     36 O         143.3468  141.1238  169.5040 O.3     1  UNL1       -0.3496
@<TRIPOS>BOND
     1    35    36    1
     2    29    36    1
     3    29    30    1
     4    30    31    1
     5    31    32    1
     6    32    33    1
     7    33    34    1
     8    34    27    1
     9     1    27    1
    10     1     2    1
    11     2     3    1
    12     3     4    1
    13     4     6    1
    14     6     7    2
    15     6     8   am
    16     8     9    1
    17     9    10    1
    18    10    11    1
    19    11    14    1
    20    14    15   ar
    21    15    16   ar
    22    16    17   ar
    23    17    18   ar
    24    18    20    1
    25    20    21    1
    26    20    22    1
    27    20    23    1
    28    18    19   ar
    29    11    12    1
    30    12    13    1
    31     4    24    1
    32    24    25    1
    33    24    26    1
    34     4     5    1
    35    34    29    1
    36     5     1    1
    37    13     8    1
    38    19    14   ar
    39    27    28    1
@<TRIPOS>MOLECULE
*****
 36 39 0 0 0
SMALL
GASTEIGER

@<TRIPOS>ATOM
      1 C         142.1211  141.4565  166.2720 C.3     1  UNL1        0.0545
      2 C         143.4421  142.1588  166.1641 C.3     1  UNL1        0.0162
      3 C         143.2846  143.2971  165.1999 C.3     1  UNL1        0.0100
      4 C         141.8662  143.2982  164.7119 C.3     1  UNL1        0.0704
      5 C         141.1472  142.1607  165.3744 C.3     1  UNL1        0.0243
      6 C         140.5402  143.5481  164.0567 C.2     1  UNL1        0.2248
      7 O         139.5575  144.4894  164.6876 O.2     1  UNL1       -0.2749
      8 N         140.1969  142.8565  162.7706 N.am    1  UNL1       -0.2760
      9 C         141.1797  141.9151  162.1398 C.3     1  UNL1        0.1148
     10 C         140.8365  141.2236  160.8538 C.3     1  UNL1        0.1123
     11 N         139.5105  141.4733  160.1985 N.pl3   1  UNL1       -0.3040
     12 C         138.5277  142.4147  160.8294 C.3     1  UNL1        0.1123
     13 C         138.8709  143.1063  162.1154 C.3     1  UNL1        0.1148
     14 C         139.1673  140.7817  158.9125 C.ar    1  UNL1        0.0510
     15 C         138.1066  141.3484  158.0160 C.ar    1  UNL1        0.0352
     16 C         137.7634  140.6568  156.7300 C.ar    1  UNL1        0.1000
     17 N         138.4810  139.3985  156.3405 N.ar    1  UNL1       -0.2398
     18 C         139.5417  138.8318  157.2369 C.ar    1  UNL1        0.1538
     19 C         139.8849  139.5234  158.5230 C.ar    1  UNL1        0.0376
     20 C         140.2592  137.5735  156.8473 C.3     1  UNL1        0.4349
     21 F         140.9767  136.3152  156.4577 F       1  UNL1       -0.1644
     22 F         141.5286  138.1156  157.4344 F       1  UNL1       -0.1644
     23 F         138.9898  137.0314  156.2603 F       1  UNL1       -0.1644
     24 C         142.3081  144.4879  163.9124 C.3     1  UNL1        0.0082
     25 C         143.5726  144.4234  163.1080 C.3     1  UNL1        0.0005
     26 C         141.9408  145.3896  163.7684 C.3     1  UNL1        0.0005
     27 N         141.8258  140.2601  167.1272 N.3     1  UNL1       -0.2975
     28 H         141.2510  139.6316  166.5660 H       1  UNL1        0.1232
     29 C         141.8990  140.8371  169.6594 C.3     1  UNL1        0.1591
     30 C         141.1962  141.0095  170.9732 C.3     1  UNL1        0.1729
     31 O         139.7174  140.7772  171.0689 O.3     1  UNL1       -0.3511
     32 C         138.9414  140.3727  169.8507 C.3     1  UNL1        0.1437
     33 C         139.6442  140.2003  168.5368 C.3     1  UNL1        0.0503
     34 C         141.1230  140.4325  168.4412 C.3     1  UNL1        0.0865
     35 C         143.9438  142.4283  169.8515 C.3     1  UNL1        0.1742
     36 O         143.3779  141.0693  169.5637 O.3     1  UNL1       -0.3496
@<TRIPOS>BOND
     1    35    36    1
     2    29    36    1
     3    29    30    1
     4    30    31    1
     5    31    32    1
     6    32    33    1
     7    33    34    1
     8    34    27    1
     9     1    27    1
    10     1     2    1
    11     2     3    1
    12     3     4    1
    13     4     6    1
    14     6     7    2
    15     6     8   am
    16     8     9    1
    17     9    10    1
    18    10    11    1
    19    11    14    1
    20    14    15   ar
    21    15    16   ar
    22    16    17   ar
    23    17    18   ar
    24    18    20    1
    25    20    21    1
    26    20    22    1
    27    20    23    1
    28    18    19   ar
    29    11    12    1
    30    12    13    1
    31     4    24    1
    32    24    25    1
    33    24    26    1
    34     4     5    1
    35    34    29    1
    36     5     1    1
    37    13     8    1
    38    19    14   ar
    39    27    28    1
@<TRIPOS>MOLECULE
*****
 36 39 0 0 0
SMALL
GASTEIGER

@<TRIPOS>ATOM
      1 C         139.9187  142.2875  164.0544 C.3     1  UNL1        0.0545
      2 C         140.2500  143.2324  165.1713 C.3     1  UNL1        0.0162
      3 C         141.6059  143.8137  164.8999 C.3     1  UNL1        0.0100
      4 C         142.1126  143.2282  163.6153 C.3     1  UNL1        0.0704
      5 C         141.0698  142.2849  163.0928 C.3     1  UNL1        0.0243
      6 C         142.8703  142.8220  162.3861 C.2     1  UNL1        0.2248
      7 O         143.9740  141.8111  162.4853 O.2     1  UNL1       -0.2749
      8 N         142.5244  143.4269  161.0578 N.am    1  UNL1       -0.2760
      9 C         141.4207  144.4378  160.9586 C.3     1  UNL1        0.1148
     10 C         141.0747  145.0427  159.6303 C.3     1  UNL1        0.1123
     11 N         141.8324  144.6366  158.4011 N.pl3   1  UNL1       -0.3040
     12 C         142.9361  143.6256  158.5002 C.3     1  UNL1        0.1123
     13 C         143.2821  143.0208  159.8285 C.3     1  UNL1        0.1148
     14 C         141.4864  145.2415  157.0728 C.ar    1  UNL1        0.0510
     15 C         142.1472  144.7373  155.8241 C.ar    1  UNL1        0.0352
     16 C         141.8012  145.3422  154.4958 C.ar    1  UNL1        0.1000
     17 N         140.7944  146.4512  154.4162 N.ar    1  UNL1       -0.2398
     18 C         140.1336  146.9554  155.6649 C.ar    1  UNL1        0.1538
     19 C         140.4796  146.3506  156.9932 C.ar    1  UNL1        0.0376
     20 C         139.1268  148.0645  155.5852 C.3     1  UNL1        0.4349
     21 F         138.1200  149.1735  155.5055 F       1  UNL1       -0.1644
     22 F         138.8692  147.9363  157.0573 F       1  UNL1       -0.1644
     23 F         139.3845  148.1926  154.1131 F       1  UNL1       -0.1644
     24 C         143.3136  144.0865  163.8809 C.3     1  UNL1        0.0082
     25 C         144.2636  143.7265  164.9845 C.3     1  UNL1        0.0005
     26 C         143.6707  144.9079  163.4728 C.3     1  UNL1        0.0005
     27 N         138.6577  141.4860  163.9224 N.3     1  UNL1       -0.2975
     28 H         137.9286  142.0007  164.4161 H       1  UNL1        0.1232
     29 C         138.9535  138.9375  163.5126 C.3     1  UNL1        0.1591
     30 C         138.9055  137.5263  164.0185 C.3     1  UNL1        0.1729
     31 O         138.5136  137.2521  165.4403 O.3     1  UNL1       -0.3511
     32 C         138.1698  138.3892  166.3560 C.3     1  UNL1        0.1437
     33 C         138.2178  139.8005  165.8501 C.3     1  UNL1        0.0503
     34 C         138.6097  140.0746  164.4284 C.3     1  UNL1        0.0865
     35 C         138.2973  139.2531  161.0187 C.3     1  UNL1        0.1742
     36 O         139.3454  139.2116  162.0909 O.3     1  UNL1       -0.3496
@<TRIPOS>BOND
     1    35    36    1
     2    29    36    1
     3    29    30    1
     4    30    31    1
     5    31    32    1
     6    32    33    1
     7    33    34    1
     8    34    27    1
     9     1    27    1
    10     1     2    1
    11     2     3    1
    12     3     4    1
    13     4     6    1
    14     6     7    2
    15     6     8   am
    16     8     9    1
    17     9    10    1
    18    10    11    1
    19    11    14    1
    20    14    15   ar
    21    15    16   ar
    22    16    17   ar
    23    17    18   ar
    24    18    20    1
    25    20    21    1
    26    20    22    1
    27    20    23    1
    28    18    19   ar
    29    11    12    1
    30    12    13    1
    31     4    24    1
    32    24    25    1
    33    24    26    1
    34     4     5    1
    35    34    29    1
    36     5     1    1
    37    13     8    1
    38    19    14   ar
    39    27    28    1
