@<TRIPOS>MOLECULE
*****
 40 45 0 0 0
SMALL
GASTEIGER

@<TRIPOS>ATOM
      1 O         141.5729  144.7836  162.5051 O.2     1  UNL1       -0.2726
      2 C         141.2186  143.3482  162.7576 C.2     1  UNL1        0.2521
      3 C         141.8371  142.4194  161.7552 C.3     1  UNL1        0.2204
      4 N         142.6880  143.0393  160.6867 N.2     1  UNL1       -0.2277
      5 C         143.1988  141.9391  159.8044 C.2     1  UNL1        0.2413
      6 N         142.6637  140.6391  160.3276 N.pl3   1  UNL1       -0.1554
      7 C         142.8801  139.2501  159.8030 C.cat   1  UNL1        0.3804
      8 N         142.2244  138.1057  160.5175 N.2     1  UNL1       -0.0723
      9 C         141.3756  138.3641  161.7269 C.2     1  UNL1        0.1911
     10 C         141.1824  139.7668  162.2218 C.2     1  UNL1        0.0527
     11 C         140.2927  139.5969  163.4174 C.ar    1  UNL1        0.0188
     12 C         140.0479  138.1201  163.5125 C.ar    1  UNL1        0.0983
     13 N         139.1847  137.5721  164.6099 N.ar    1  UNL1       -0.2399
     14 C         138.5661  138.5009  165.6122 C.ar    1  UNL1        0.1524
     15 C         138.8108  139.9777  165.5172 C.ar    1  UNL1        0.0205
     16 C         139.6741  140.5257  164.4198 C.ar    1  UNL1        0.0005
     17 C         139.6891  142.0092  164.6417 C.3     1  UNL1        0.1205
     18 N         140.3288  143.1783  163.9532 N.am    1  UNL1       -0.2683
     19 C         141.8222  140.9359  161.5333 C.3     1  UNL1        0.1964
     20 C         137.7028  137.9528  166.7097 C.3     1  UNL1        0.4348
     21 F         136.8395  137.4047  167.8071 F       1  UNL1       -0.1644
     22 F         137.5007  139.3399  167.2436 F       1  UNL1       -0.1644
     23 F         137.9048  136.5657  166.1758 F       1  UNL1       -0.1644
     24 N         143.7290  138.9916  158.5936 N.pl3   1  UNL1       -0.2203
     25 H         144.6418  138.6384  158.6993 H       1  UNL1        0.2456
     26 C         143.1870  139.2714  157.2231 C.3     1  UNL1        0.1927
     27 C         141.9418  138.5797  156.7534 C.ar    1  UNL1        0.0412
     28 C         142.0209  137.1890  156.1968 C.ar    1  UNL1        0.1391
     29 F         143.3453  136.4901  156.1101 F       1  UNL1       -0.2044
     30 C         140.7756  136.4972  155.7270 C.ar    1  UNL1        0.0325
     31 C         139.4512  137.1961  155.8138 C.ar    1  UNL1        0.0389
     32 C         139.3721  138.5868  156.3703 C.ar    1  UNL1        0.1346
     33 C         140.6174  139.2785  156.8401 C.ar    1  UNL1        0.0168
     34 C         140.2316  140.6397  157.3385 C.3     1  UNL1        0.0766
     35 C         138.7478  140.7891  157.1767 C.3     1  UNL1        0.2101
     36 O         138.2166  139.5203  156.5783 O.3     1  UNL1       -0.4754
     37 C         140.0022  144.4837  164.6158 C.3     1  UNL1        0.1662
     38 C         138.5912  144.7837  165.0271 C.3     1  UNL1        0.3381
     39 F         137.4487  144.3575  164.1536 F       1  UNL1       -0.1965
     40 F         138.3228  145.5099  166.3119 F       1  UNL1       -0.1965
@<TRIPOS>BOND
     1     1     2    2
     2     2     3    1
     3     3     4    1
     4     4     5    2
     5     5     6    1
     6     6     7    1
     7     7    24    1
     8    24    26    1
     9    26    27    1
    10    27    28   ar
    11    28    29    1
    12    28    30   ar
    13    30    31   ar
    14    31    32   ar
    15    32    33   ar
    16    33    34    1
    17    34    35    1
    18    35    36    1
    19     7     8    2
    20     8     9    1
    21     9    10    2
    22    10    11    1
    23    11    12   ar
    24    12    13   ar
    25    13    14   ar
    26    14    20    1
    27    20    21    1
    28    20    22    1
    29    20    23    1
    30    14    15   ar
    31    15    16   ar
    32    16    17    1
    33    17    18    1
    34    18    37    1
    35    37    38    1
    36    38    39    1
    37    38    40    1
    38    10    19    1
    39    18     2   am
    40    19     3    1
    41    19     6    1
    42    33    27   ar
    43    16    11   ar
    44    36    32    1
    45    24    25    1
@<TRIPOS>MOLECULE
*****
 40 45 0 0 0
SMALL
GASTEIGER

@<TRIPOS>ATOM
      1 O         141.5219  144.9530  162.6704 O.2     1  UNL1       -0.2726
      2 C         141.1970  143.5052  162.8895 C.2     1  UNL1        0.2521
      3 C         141.8584  142.6099  161.8839 C.3     1  UNL1        0.2204
      4 N         142.7162  143.2695  160.8450 N.2     1  UNL1       -0.2277
      5 C         143.2715  142.1981  159.9542 C.2     1  UNL1        0.2413
      6 N         142.7571  140.8764  160.4424 N.pl3   1  UNL1       -0.1554
      7 C         143.0177  139.5028  159.8976 C.cat   1  UNL1        0.3804
      8 N         142.3750  138.3303  160.5773 N.2     1  UNL1       -0.0723
      9 C         141.4952  138.5461  161.7729 C.2     1  UNL1        0.1911
     10 C         141.2581  139.9345  162.2887 C.2     1  UNL1        0.0527
     11 C         140.3480  139.7215  163.4619 C.ar    1  UNL1        0.0188
     12 C         140.1369  138.2378  163.5252 C.ar    1  UNL1        0.0983
     13 N         139.2644  137.6493  164.5940 N.ar    1  UNL1       -0.2399
     14 C         138.6030  138.5446  165.5995 C.ar    1  UNL1        0.1524
     15 C         138.8141  140.0283  165.5363 C.ar    1  UNL1        0.0205
     16 C         139.6866  140.6167  164.4675 C.ar    1  UNL1        0.0005
     17 C         139.6613  142.0958  164.7163 C.3     1  UNL1        0.1205
     18 N         140.2869  143.2922  164.0627 N.am    1  UNL1       -0.2683
     19 C         141.8837  141.1309  161.6351 C.3     1  UNL1        0.1964
     20 C         137.7304  137.9560  166.6684 C.3     1  UNL1        0.4348
     21 F         136.8579  137.3675  167.7372 F       1  UNL1       -0.1644
     22 F         137.9276  136.5913  166.0779 F       1  UNL1       -0.1644
     23 F         137.5333  139.3207  167.2588 F       1  UNL1       -0.1644
     24 N         143.8975  139.2869  158.7021 N.pl3   1  UNL1       -0.2203
     25 H         144.8403  139.0311  158.8245 H       1  UNL1        0.2456
     26 C         143.3409  139.4607  157.3200 C.3     1  UNL1        0.1927
     27 C         142.0878  138.7400  156.9200 C.ar    1  UNL1        0.0412
     28 C         140.7610  139.4334  157.0147 C.ar    1  UNL1        0.1391
     29 F         140.6875  140.8475  157.5096 F       1  UNL1       -0.2044
     30 C         139.5079  138.7126  156.6147 C.ar    1  UNL1        0.0325
     31 C         139.5813  137.2985  156.1198 C.ar    1  UNL1        0.0389
     32 C         140.9081  136.6051  156.0251 C.ar    1  UNL1        0.1346
     33 C         142.1613  137.3259  156.4251 C.ar    1  UNL1        0.0168
     34 C         143.3175  136.3914  156.2250 C.3     1  UNL1        0.0766
     35 C         142.7788  135.0931  155.7013 C.3     1  UNL1        0.2101
     36 O         141.2897  135.2252  155.5777 O.3     1  UNL1       -0.4754
     37 C         139.9152  144.5771  164.7415 C.3     1  UNL1        0.1662
     38 C         138.5017  144.8085  165.1868 C.3     1  UNL1        0.3381
     39 F         138.2268  145.6133  166.4224 F       1  UNL1       -0.1965
     40 F         137.3630  144.2352  164.3963 F       1  UNL1       -0.1965
@<TRIPOS>BOND
     1     1     2    2
     2     2     3    1
     3     3     4    1
     4     4     5    2
     5     5     6    1
     6     6     7    1
     7     7    24    1
     8    24    26    1
     9    26    27    1
    10    27    28   ar
    11    28    29    1
    12    28    30   ar
    13    30    31   ar
    14    31    32   ar
    15    32    33   ar
    16    33    34    1
    17    34    35    1
    18    35    36    1
    19     7     8    2
    20     8     9    1
    21     9    10    2
    22    10    11    1
    23    11    12   ar
    24    12    13   ar
    25    13    14   ar
    26    14    20    1
    27    20    21    1
    28    20    22    1
    29    20    23    1
    30    14    15   ar
    31    15    16   ar
    32    16    17    1
    33    17    18    1
    34    18    37    1
    35    37    38    1
    36    38    39    1
    37    38    40    1
    38    10    19    1
    39    18     2   am
    40    19     3    1
    41    19     6    1
    42    33    27   ar
    43    16    11   ar
    44    36    32    1
    45    24    25    1
@<TRIPOS>MOLECULE
*****
 40 45 0 0 0
SMALL
GASTEIGER

@<TRIPOS>ATOM
      1 O         142.8514  142.4847  167.1055 O.2     1  UNL1       -0.2726
      2 C         141.6646  141.5834  167.2761 C.2     1  UNL1        0.2521
      3 C         141.3309  140.8302  166.0226 C.3     1  UNL1        0.2204
      4 N         142.2008  141.0795  164.8263 N.2     1  UNL1       -0.2277
      5 C         141.6919  140.2318  163.6984 C.2     1  UNL1        0.2413
      6 N         140.5074  139.4585  164.1975 N.pl3   1  UNL1       -0.1554
      7 C         139.6455  138.4742  163.4629 C.cat   1  UNL1        0.3804
      8 N         138.5082  137.8305  164.1994 N.2     1  UNL1       -0.0723
      9 C         138.2545  138.1758  165.6369 C.2     1  UNL1        0.1911
     10 C         139.1380  139.1647  166.3378 C.2     1  UNL1        0.0527
     11 C         138.5633  139.2281  167.7220 C.ar    1  UNL1        0.0188
     12 C         137.4037  138.2768  167.7048 C.ar    1  UNL1        0.0983
     13 N         136.5778  138.0787  168.9412 N.ar    1  UNL1       -0.2399
     14 C         136.9115  138.8319  170.1947 C.ar    1  UNL1        0.1524
     15 C         138.0711  139.7832  170.2119 C.ar    1  UNL1        0.0205
     16 C         138.8970  139.9813  168.9755 C.ar    1  UNL1        0.0005
     17 C         139.9436  140.9832  169.3642 C.3     1  UNL1        0.1205
     18 N         141.0899  141.6468  168.6603 N.am    1  UNL1       -0.2683
     19 C         140.2843  139.8283  165.6339 C.3     1  UNL1        0.1964
     20 C         136.0856  138.6338  171.4311 C.3     1  UNL1        0.4348
     21 F         135.2596  138.4356  172.6674 F       1  UNL1       -0.1644
     22 F         135.8863  140.1168  171.5357 F       1  UNL1       -0.1644
     23 F         136.2848  137.1508  171.3265 F       1  UNL1       -0.1644
     24 N         139.8992  138.1289  162.0254 N.pl3   1  UNL1       -0.2203
     25 H         140.7118  137.6330  161.7743 H       1  UNL1        0.2456
     26 C         138.9149  138.5391  160.9705 C.3     1  UNL1        0.1927
     27 C         138.9587  139.9268  160.4027 C.ar    1  UNL1        0.0412
     28 C         139.5196  140.1585  159.0309 C.ar    1  UNL1        0.1391
     29 F         140.0366  139.0025  158.2270 F       1  UNL1       -0.2044
     30 C         139.5633  141.5462  158.4632 C.ar    1  UNL1        0.0325
     31 C         139.0463  142.7022  159.2671 C.ar    1  UNL1        0.0389
     32 C         138.4854  142.4704  160.6389 C.ar    1  UNL1        0.1346
     33 C         138.4416  141.0828  161.2066 C.ar    1  UNL1        0.0168
     34 C         137.8362  141.1614  162.5768 C.3     1  UNL1        0.0766
     35 C         137.5058  142.5977  162.8558 C.3     1  UNL1        0.2101
     36 O         137.9070  143.4068  161.6581 O.3     1  UNL1       -0.4754
     37 C         141.8369  142.5966  169.5490 C.3     1  UNL1        0.1662
     38 C         143.1503  142.1883  170.1473 C.3     1  UNL1        0.3381
     39 F         143.4792  140.7342  170.3133 F       1  UNL1       -0.1965
     40 F         144.1350  143.2340  170.5797 F       1  UNL1       -0.1965
@<TRIPOS>BOND
     1     1     2    2
     2     2     3    1
     3     3     4    1
     4     4     5    2
     5     5     6    1
     6     6     7    1
     7     7    24    1
     8    24    26    1
     9    26    27    1
    10    27    28   ar
    11    28    29    1
    12    28    30   ar
    13    30    31   ar
    14    31    32   ar
    15    32    33   ar
    16    33    34    1
    17    34    35    1
    18    35    36    1
    19     7     8    2
    20     8     9    1
    21     9    10    2
    22    10    11    1
    23    11    12   ar
    24    12    13   ar
    25    13    14   ar
    26    14    20    1
    27    20    21    1
    28    20    22    1
    29    20    23    1
    30    14    15   ar
    31    15    16   ar
    32    16    17    1
    33    17    18    1
    34    18    37    1
    35    37    38    1
    36    38    39    1
    37    38    40    1
    38    10    19    1
    39    18     2   am
    40    19     3    1
    41    19     6    1
    42    33    27   ar
    43    16    11   ar
    44    36    32    1
    45    24    25    1
@<TRIPOS>MOLECULE
*****
 40 45 0 0 0
SMALL
GASTEIGER

@<TRIPOS>ATOM
      1 O         144.7249  141.4975  160.5184 O.2     1  UNL1       -0.2726
      2 C         143.7590  142.4962  159.9533 C.2     1  UNL1        0.2521
      3 C         142.8681  143.0908  161.0034 C.3     1  UNL1        0.2204
      4 N         143.0664  142.6170  162.4127 N.2     1  UNL1       -0.2277
      5 C         142.0806  143.3349  163.2861 C.2     1  UNL1        0.2413
      6 N         141.2730  144.2524  162.4166 N.pl3   1  UNL1       -0.1554
      7 C         140.1629  145.1848  162.8037 C.cat   1  UNL1        0.3804
      8 N         139.5100  146.0037  161.7299 N.2     1  UNL1       -0.0723
      9 C         139.9701  145.8795  160.3076 C.2     1  UNL1        0.1911
     10 C         141.0832  144.9364  159.9592 C.2     1  UNL1        0.0527
     11 C         141.2348  145.1062  158.4765 C.ar    1  UNL1        0.0188
     12 C         140.2035  146.1264  158.0951 C.ar    1  UNL1        0.0983
     13 N         140.0631  146.5520  156.6637 N.ar    1  UNL1       -0.2399
     14 C         140.9540  145.9574  155.6136 C.ar    1  UNL1        0.1524
     15 C         141.9853  144.9371  155.9949 C.ar    1  UNL1        0.0205
     16 C         142.1257  144.5116  157.4264 C.ar    1  UNL1        0.0005
     17 C         143.2341  143.5008  157.4240 C.3     1  UNL1        0.1205
     18 N         143.9106  142.6660  158.4706 N.am    1  UNL1       -0.2683
     19 C         141.7597  144.1016  161.0058 C.3     1  UNL1        0.1964
     20 C         140.8135  146.3830  154.1821 C.3     1  UNL1        0.4348
     21 F         140.6730  146.8087  152.7506 F       1  UNL1       -0.1644
     22 F         142.1225  145.7260  153.8582 F       1  UNL1       -0.1644
     23 F         139.5046  147.0401  154.5059 F       1  UNL1       -0.1644
     24 N         139.7028  145.3091  164.2259 N.pl3   1  UNL1       -0.2203
     25 H         140.0941  145.9970  164.8115 H       1  UNL1        0.2456
     26 C         138.6465  144.3853  164.7559 C.3     1  UNL1        0.1927
     27 C         138.9384  142.9222  164.9101 C.ar    1  UNL1        0.0412
     28 C         139.6782  142.4281  166.1179 C.ar    1  UNL1        0.1391
     29 F         140.1261  143.3974  167.1714 F       1  UNL1       -0.2044
     30 C         139.9700  140.9649  166.2721 C.ar    1  UNL1        0.0325
     31 C         139.5221  139.9957  165.2186 C.ar    1  UNL1        0.0389
     32 C         138.7823  140.4897  164.0108 C.ar    1  UNL1        0.1346
     33 C         138.4905  141.9529  163.8566 C.ar    1  UNL1        0.0168
     34 C         137.7481  142.1441  162.5673 C.3     1  UNL1        0.0766
     35 C         137.5812  140.7990  161.9247 C.3     1  UNL1        0.2101
     36 O         138.2204  139.7765  162.8168 O.3     1  UNL1       -0.4754
     37 C         144.9926  141.7972  157.9010 C.3     1  UNL1        0.1662
     38 C         146.1070  142.4111  157.1065 C.3     1  UNL1        0.3381
     39 F         145.9662  142.5786  155.6226 F       1  UNL1       -0.1965
     40 F         147.3621  142.8574  157.7960 F       1  UNL1       -0.1965
@<TRIPOS>BOND
     1     1     2    2
     2     2     3    1
     3     3     4    1
     4     4     5    2
     5     5     6    1
     6     6     7    1
     7     7    24    1
     8    24    26    1
     9    26    27    1
    10    27    28   ar
    11    28    29    1
    12    28    30   ar
    13    30    31   ar
    14    31    32   ar
    15    32    33   ar
    16    33    34    1
    17    34    35    1
    18    35    36    1
    19     7     8    2
    20     8     9    1
    21     9    10    2
    22    10    11    1
    23    11    12   ar
    24    12    13   ar
    25    13    14   ar
    26    14    20    1
    27    20    21    1
    28    20    22    1
    29    20    23    1
    30    14    15   ar
    31    15    16   ar
    32    16    17    1
    33    17    18    1
    34    18    37    1
    35    37    38    1
    36    38    39    1
    37    38    40    1
    38    10    19    1
    39    18     2   am
    40    19     3    1
    41    19     6    1
    42    33    27   ar
    43    16    11   ar
    44    36    32    1
    45    24    25    1
@<TRIPOS>MOLECULE
*****
 40 45 0 0 0
SMALL
GASTEIGER

@<TRIPOS>ATOM
      1 O         144.8071  141.5116  160.4645 O.2     1  UNL1       -0.2726
      2 C         143.8356  142.5017  159.8938 C.2     1  UNL1        0.2521
      3 C         142.9590  143.1166  160.9443 C.3     1  UNL1        0.2204
      4 N         143.1744  142.6678  162.3592 N.2     1  UNL1       -0.2277
      5 C         142.2008  143.4029  163.2320 C.2     1  UNL1        0.2413
      6 N         141.3838  144.3062  162.3565 N.pl3   1  UNL1       -0.1554
      7 C         140.2801  145.2473  162.7407 C.cat   1  UNL1        0.3804
      8 N         139.6149  146.0480  161.6608 N.2     1  UNL1       -0.0723
      9 C         140.0568  145.8975  160.2353 C.2     1  UNL1        0.1911
     10 C         141.1639  144.9463  159.8898 C.2     1  UNL1        0.0527
     11 C         141.2970  145.0893  158.4025 C.ar    1  UNL1        0.0188
     12 C         140.2625  146.1044  158.0159 C.ar    1  UNL1        0.0983
     13 N         140.1046  146.5045  156.5790 N.ar    1  UNL1       -0.2399
     14 C         140.9812  145.8896  155.5286 C.ar    1  UNL1        0.1524
     15 C         142.0157  144.8746  155.9151 C.ar    1  UNL1        0.0205
     16 C         142.1736  144.4744  157.3520 C.ar    1  UNL1        0.0005
     17 C         143.2803  143.4618  157.3537 C.3     1  UNL1        0.1205
     18 N         143.9687  142.6447  158.4066 N.am    1  UNL1       -0.2683
     19 C         141.8523  144.1292  160.9426 C.3     1  UNL1        0.1964
     20 C         140.8233  146.2898  154.0915 C.3     1  UNL1        0.4348
     21 F         140.6655  146.6900  152.6546 F       1  UNL1       -0.1644
     22 F         139.6116  147.0981  154.4497 F       1  UNL1       -0.1644
     23 F         142.0351  145.4815  153.7333 F       1  UNL1       -0.1644
     24 N         139.8382  145.3978  164.1662 N.pl3   1  UNL1       -0.2203
     25 H         140.3040  146.0280  164.7620 H       1  UNL1        0.2456
     26 C         138.6865  144.5881  164.6839 C.3     1  UNL1        0.1927
     27 C         138.7333  143.0903  164.6187 C.ar    1  UNL1        0.0412
     28 C         138.0180  142.3648  163.5178 C.ar    1  UNL1        0.1391
     29 F         137.2559  143.1372  162.4822 F       1  UNL1       -0.2044
     30 C         138.0648  140.8670  163.4526 C.ar    1  UNL1        0.0325
     31 C         138.8269  140.0946  164.4883 C.ar    1  UNL1        0.0389
     32 C         139.5422  140.8201  165.5892 C.ar    1  UNL1        0.1346
     33 C         139.4954  142.3179  165.6544 C.ar    1  UNL1        0.0168
     34 C         140.2921  142.7551  166.8477 C.3     1  UNL1        0.0766
     35 C         140.8314  141.5274  167.5201 C.3     1  UNL1        0.2101
     36 O         140.3679  140.3315  166.7422 O.3     1  UNL1       -0.4754
     37 C         145.0421  141.7640  157.8390 C.3     1  UNL1        0.1662
     38 C         146.1564  142.3636  157.0337 C.3     1  UNL1        0.3381
     39 F         146.0062  142.5267  155.5502 F       1  UNL1       -0.1965
     40 F         147.4211  142.8003  157.7120 F       1  UNL1       -0.1965
@<TRIPOS>BOND
     1     1     2    2
     2     2     3    1
     3     3     4    1
     4     4     5    2
     5     5     6    1
     6     6     7    1
     7     7    24    1
     8    24    26    1
     9    26    27    1
    10    27    28   ar
    11    28    29    1
    12    28    30   ar
    13    30    31   ar
    14    31    32   ar
    15    32    33   ar
    16    33    34    1
    17    34    35    1
    18    35    36    1
    19     7     8    2
    20     8     9    1
    21     9    10    2
    22    10    11    1
    23    11    12   ar
    24    12    13   ar
    25    13    14   ar
    26    14    20    1
    27    20    21    1
    28    20    22    1
    29    20    23    1
    30    14    15   ar
    31    15    16   ar
    32    16    17    1
    33    17    18    1
    34    18    37    1
    35    37    38    1
    36    38    39    1
    37    38    40    1
    38    10    19    1
    39    18     2   am
    40    19     3    1
    41    19     6    1
    42    33    27   ar
    43    16    11   ar
    44    36    32    1
    45    24    25    1
@<TRIPOS>MOLECULE
*****
 40 45 0 0 0
SMALL
GASTEIGER

@<TRIPOS>ATOM
      1 O         137.7015  143.0908  161.4957 O.2     1  UNL1       -0.2726
      2 C         138.6943  142.1202  162.0633 C.2     1  UNL1        0.2521
      3 C         139.2816  141.2213  161.0159 C.3     1  UNL1        0.2204
      4 N         138.8075  141.4176  159.6064 N.2     1  UNL1       -0.2277
      5 C         139.5177  140.4237  158.7359 C.2     1  UNL1        0.2413
      6 N         140.4307  139.6131  159.6073 N.pl3   1  UNL1       -0.1554
      7 C         141.3550  138.4953  159.2233 C.cat   1  UNL1        0.3804
      8 N         142.1707  137.8407  160.2987 N.2     1  UNL1       -0.0723
      9 C         142.0512  138.3070  161.7193 C.2     1  UNL1        0.1911
     10 C         141.1161  139.4278  162.0647 C.2     1  UNL1        0.0527
     11 C         141.2887  139.5837  163.5466 C.ar    1  UNL1        0.0188
     12 C         142.3023  138.5469  163.9306 C.ar    1  UNL1        0.0983
     13 N         142.7285  138.4089  165.3621 N.ar    1  UNL1       -0.2399
     14 C         142.1412  139.3077  166.4096 C.ar    1  UNL1        0.1524
     15 C         141.1276  140.3446  166.0255 C.ar    1  UNL1        0.0205
     16 C         140.7013  140.4826  164.5940 C.ar    1  UNL1        0.0005
     17 C         139.6982  141.5978  164.5935 C.3     1  UNL1        0.1205
     18 N         138.8668  142.2761  163.5452 N.am    1  UNL1       -0.2683
     19 C         140.2848  140.1061  161.0164 C.3     1  UNL1        0.1964
     20 C         142.5675  139.1697  167.8411 C.3     1  UNL1        0.4348
     21 F         142.9939  139.0316  169.2726 F       1  UNL1       -0.1644
     22 F         141.5095  140.1508  168.2509 F       1  UNL1       -0.1644
     23 F         143.6256  138.1886  167.4314 F       1  UNL1       -0.1644
     24 N         141.4745  138.0290  157.8027 N.pl3   1  UNL1       -0.2203
     25 H         140.7362  138.1839  157.1701 H       1  UNL1        0.2456
     26 C         142.7187  137.3267  157.3459 C.3     1  UNL1        0.1927
     27 C         142.6552  136.3534  156.2064 C.ar    1  UNL1        0.0412
     28 C         142.2264  136.8181  154.8461 C.ar    1  UNL1        0.1391
     29 F         141.8611  138.2561  154.6255 F       1  UNL1       -0.2044
     30 C         142.1629  135.8448  153.7066 C.ar    1  UNL1        0.0325
     31 C         142.5283  134.4067  153.9272 C.ar    1  UNL1        0.0389
     32 C         142.9571  133.9421  155.2874 C.ar    1  UNL1        0.1346
     33 C         143.0206  134.9154  156.4270 C.ar    1  UNL1        0.0168
     34 C         143.4762  134.1715  157.6472 C.3     1  UNL1        0.0766
     35 C         143.6943  132.7383  157.2617 C.3     1  UNL1        0.2101
     36 O         143.3735  132.5965  155.8033 O.3     1  UNL1       -0.4754
     37 C         138.0061  143.3661  164.1118 C.3     1  UNL1        0.1662
     38 C         138.6207  144.6731  164.5167 C.3     1  UNL1        0.3381
     39 F         138.5124  145.1450  165.9364 F       1  UNL1       -0.1965
     40 F         139.3437  145.5082  163.5018 F       1  UNL1       -0.1965
@<TRIPOS>BOND
     1     1     2    2
     2     2     3    1
     3     3     4    1
     4     4     5    2
     5     5     6    1
     6     6     7    1
     7     7    24    1
     8    24    26    1
     9    26    27    1
    10    27    28   ar
    11    28    29    1
    12    28    30   ar
    13    30    31   ar
    14    31    32   ar
    15    32    33   ar
    16    33    34    1
    17    34    35    1
    18    35    36    1
    19     7     8    2
    20     8     9    1
    21     9    10    2
    22    10    11    1
    23    11    12   ar
    24    12    13   ar
    25    13    14   ar
    26    14    20    1
    27    20    21    1
    28    20    22    1
    29    20    23    1
    30    14    15   ar
    31    15    16   ar
    32    16    17    1
    33    17    18    1
    34    18    37    1
    35    37    38    1
    36    38    39    1
    37    38    40    1
    38    10    19    1
    39    18     2   am
    40    19     3    1
    41    19     6    1
    42    33    27   ar
    43    16    11   ar
    44    36    32    1
    45    24    25    1
@<TRIPOS>MOLECULE
*****
 40 45 0 0 0
SMALL
GASTEIGER

@<TRIPOS>ATOM
      1 O         139.7718  137.5412  162.8289 O.2     1  UNL1       -0.2726
      2 C         140.5888  138.6190  163.4775 C.2     1  UNL1        0.2521
      3 C         141.4451  139.3605  162.4943 C.3     1  UNL1        0.2204
      4 N         141.3620  138.9314  161.0594 N.2     1  UNL1       -0.2277
      5 C         142.2906  139.7983  160.2618 C.2     1  UNL1        0.2413
      6 N         142.9477  140.7632  161.2037 N.pl3   1  UNL1       -0.1554
      7 C         143.9544  141.8352  160.9059 C.cat   1  UNL1        0.3804
      8 N         144.4614  142.6750  162.0407 N.2     1  UNL1       -0.0723
      9 C         143.9616  142.4334  163.4341 C.2     1  UNL1        0.1911
     10 C         142.9548  141.3521  163.6928 C.2     1  UNL1        0.0527
     11 C         142.7238  141.4355  165.1727 C.ar    1  UNL1        0.0188
     12 C         143.6107  142.5506  165.6418 C.ar    1  UNL1        0.0983
     13 N         143.6412  142.9241  167.0942 N.ar    1  UNL1       -0.2399
     14 C         142.7849  142.1826  168.0774 C.ar    1  UNL1        0.1524
     15 C         141.8980  141.0675  167.6083 C.ar    1  UNL1        0.0205
     16 C         141.8675  140.6940  166.1559 C.ar    1  UNL1        0.0005
     17 C         140.8875  139.5619  166.0668 C.3     1  UNL1        0.1205
     18 N         140.3578  138.7024  164.9574 N.am    1  UNL1       -0.2683
     19 C         142.4252  140.4926  162.5834 C.3     1  UNL1        0.1964
     20 C         142.8154  142.5562  169.5299 C.3     1  UNL1        0.4348
     21 F         142.8459  142.9298  170.9823 F       1  UNL1       -0.1644
     22 F         144.1122  141.8200  169.6920 F       1  UNL1       -0.1644
     23 F         141.5186  143.2923  169.3678 F       1  UNL1       -0.1644
     24 N         144.4542  142.0768  159.5124 N.pl3   1  UNL1       -0.2203
     25 H         145.2354  141.5805  159.1767 H       1  UNL1        0.2456
     26 C         143.7638  143.0745  158.6303 C.3     1  UNL1        0.1927
     27 C         142.2704  143.0478  158.4935 C.ar    1  UNL1        0.0412
     28 C         141.6327  142.2658  157.3836 C.ar    1  UNL1        0.1391
     29 F         142.4887  141.5106  156.4105 F       1  UNL1       -0.2044
     30 C         140.1393  142.2391  157.2468 C.ar    1  UNL1        0.0325
     31 C         139.2833  142.9943  158.2199 C.ar    1  UNL1        0.0389
     32 C         139.9209  143.7763  159.3299 C.ar    1  UNL1        0.1346
     33 C         141.4144  143.8030  159.4667 C.ar    1  UNL1        0.0168
     34 C         141.7561  144.6553  160.6528 C.3     1  UNL1        0.0766
     35 C         140.4737  145.1553  161.2490 C.3     1  UNL1        0.2101
     36 O         139.3395  144.6121  160.4314 O.3     1  UNL1       -0.4754
     37 C         139.3640  137.6884  165.4413 C.3     1  UNL1        0.1662
     38 C         138.1450  138.1328  166.1939 C.3     1  UNL1        0.3381
     39 F         137.3588  137.1421  167.0002 F       1  UNL1       -0.1965
     40 F         137.7123  139.5681  166.1402 F       1  UNL1       -0.1965
@<TRIPOS>BOND
     1     1     2    2
     2     2     3    1
     3     3     4    1
     4     4     5    2
     5     5     6    1
     6     6     7    1
     7     7    24    1
     8    24    26    1
     9    26    27    1
    10    27    28   ar
    11    28    29    1
    12    28    30   ar
    13    30    31   ar
    14    31    32   ar
    15    32    33   ar
    16    33    34    1
    17    34    35    1
    18    35    36    1
    19     7     8    2
    20     8     9    1
    21     9    10    2
    22    10    11    1
    23    11    12   ar
    24    12    13   ar
    25    13    14   ar
    26    14    20    1
    27    20    21    1
    28    20    22    1
    29    20    23    1
    30    14    15   ar
    31    15    16   ar
    32    16    17    1
    33    17    18    1
    34    18    37    1
    35    37    38    1
    36    38    39    1
    37    38    40    1
    38    10    19    1
    39    18     2   am
    40    19     3    1
    41    19     6    1
    42    33    27   ar
    43    16    11   ar
    44    36    32    1
    45    24    25    1
@<TRIPOS>MOLECULE
*****
 40 45 0 0 0
SMALL
GASTEIGER

@<TRIPOS>ATOM
      1 O         139.4389  145.9183  161.4326 O.2     1  UNL1       -0.2726
      2 C         140.3900  144.7719  161.6091 C.2     1  UNL1        0.2521
      3 C         141.2147  144.5162  160.3825 C.3     1  UNL1        0.2204
      4 N         140.9761  145.4114  159.2027 N.2     1  UNL1       -0.2277
      5 C         141.8983  144.9813  158.1007 C.2     1  UNL1        0.2413
      6 N         142.7068  143.8203  158.5992 N.pl3   1  UNL1       -0.1554
      7 C         143.7651  143.0317  157.8855 C.cat   1  UNL1        0.3804
      8 N         144.4312  141.9038  158.6165 N.2     1  UNL1       -0.0723
      9 C         144.0347  141.5870  160.0280 C.2     1  UNL1        0.1911
     10 C         142.9722  142.3980  160.7086 C.2     1  UNL1        0.0527
     11 C         142.8755  141.7763  162.0703 C.ar    1  UNL1        0.0188
     12 C         143.8836  140.6656  162.0624 C.ar    1  UNL1        0.0983
     13 N         144.0670  139.8106  163.2811 N.ar    1  UNL1       -0.2399
     14 C         143.2423  140.0663  164.5077 C.ar    1  UNL1        0.1524
     15 C         142.2343  141.1770  164.5156 C.ar    1  UNL1        0.0205
     16 C         142.0508  142.0319  163.2969 C.ar    1  UNL1        0.0005
     17 C         140.9812  143.0153  163.6699 C.3     1  UNL1        0.1205
     18 N         140.2933  144.1502  162.9708 N.am    1  UNL1       -0.2683
     19 C         142.2843  143.5329  160.0095 C.3     1  UNL1        0.1964
     20 C         143.4258  139.2112  165.7265 C.3     1  UNL1        0.4348
     21 F         143.6092  138.3562  166.9452 F       1  UNL1       -0.1644
     22 F         144.7795  138.7960  165.2315 F       1  UNL1       -0.1644
     23 F         142.0721  139.6264  166.2215 F       1  UNL1       -0.1644
     24 N         144.1616  143.3485  156.4740 N.pl3   1  UNL1       -0.2203
     25 H         143.7963  144.1462  156.0274 H       1  UNL1        0.2456
     26 C         145.1147  142.4499  155.7430 C.3     1  UNL1        0.1927
     27 C         146.0586  143.0243  154.7286 C.ar    1  UNL1        0.0412
     28 C         145.5627  144.0192  153.7214 C.ar    1  UNL1        0.1391
     29 F         144.1228  144.4396  153.7287 F       1  UNL1       -0.2044
     30 C         146.5066  144.5935  152.7070 C.ar    1  UNL1        0.0325
     31 C         147.9465  144.1731  152.6997 C.ar    1  UNL1        0.0389
     32 C         148.4424  143.1783  153.7069 C.ar    1  UNL1        0.1346
     33 C         147.4985  142.6039  154.7213 C.ar    1  UNL1        0.0168
     34 C         148.2696  141.6492  155.5838 C.3     1  UNL1        0.0766
     35 C         149.6902  141.6336  155.1025 C.3     1  UNL1        0.2101
     36 O         149.7970  142.5786  153.9424 O.3     1  UNL1       -0.4754
     37 C         139.2682  144.8207  163.8365 C.3     1  UNL1        0.1662
     38 C         138.0003  144.1021  164.1913 C.3     1  UNL1        0.3381
     39 F         137.5424  142.9368  163.3653 F       1  UNL1       -0.1965
     40 F         137.1903  144.5488  165.3721 F       1  UNL1       -0.1965
@<TRIPOS>BOND
     1     1     2    2
     2     2     3    1
     3     3     4    1
     4     4     5    2
     5     5     6    1
     6     6     7    1
     7     7    24    1
     8    24    26    1
     9    26    27    1
    10    27    28   ar
    11    28    29    1
    12    28    30   ar
    13    30    31   ar
    14    31    32   ar
    15    32    33   ar
    16    33    34    1
    17    34    35    1
    18    35    36    1
    19     7     8    2
    20     8     9    1
    21     9    10    2
    22    10    11    1
    23    11    12   ar
    24    12    13   ar
    25    13    14   ar
    26    14    20    1
    27    20    21    1
    28    20    22    1
    29    20    23    1
    30    14    15   ar
    31    15    16   ar
    32    16    17    1
    33    17    18    1
    34    18    37    1
    35    37    38    1
    36    38    39    1
    37    38    40    1
    38    10    19    1
    39    18     2   am
    40    19     3    1
    41    19     6    1
    42    33    27   ar
    43    16    11   ar
    44    36    32    1
    45    24    25    1
@<TRIPOS>MOLECULE
*****
 40 45 0 0 0
SMALL
GASTEIGER

@<TRIPOS>ATOM
      1 O         144.4840  143.5425  161.5731 O.2     1  UNL1       -0.2726
      2 C         143.4665  142.4484  161.7054 C.2     1  UNL1        0.2521
      3 C         143.2985  141.6645  160.4375 C.3     1  UNL1        0.2204
      4 N         144.1415  142.0746  159.2666 N.2     1  UNL1       -0.2277
      5 C         143.8141  141.1659  158.1190 C.2     1  UNL1        0.2413
      6 N         142.7688  140.1942  158.5806 N.pl3   1  UNL1       -0.1554
      7 C         142.1077  139.0853  157.8158 C.cat   1  UNL1        0.3804
      8 N         141.0808  138.2465  158.5170 N.2     1  UNL1       -0.0723
      9 C         140.7362  138.5252  159.9500 C.2     1  UNL1        0.1911
     10 C         141.4184  139.6426  160.6818 C.2     1  UNL1        0.0527
     11 C         140.8077  139.5890  162.0509 C.ar    1  UNL1        0.0188
     12 C         139.8302  138.4526  161.9957 C.ar    1  UNL1        0.0983
     13 N         139.0207  138.1001  163.2083 N.ar    1  UNL1       -0.2399
     14 C         139.1888  138.8840  164.4761 C.ar    1  UNL1        0.1524
     15 C         140.1662  140.0204  164.5313 C.ar    1  UNL1        0.0205
     16 C         140.9757  140.3729  163.3187 C.ar    1  UNL1        0.0005
     17 C         141.8240  141.5351  163.7426 C.3     1  UNL1        0.1205
     18 N         142.8558  142.3948  163.0744 N.am    1  UNL1       -0.2683
     19 C         142.4501  140.5023  160.0136 C.3     1  UNL1        0.1964
     20 C         138.3792  138.5314  165.6887 C.3     1  UNL1        0.4348
     21 F         137.5697  138.1789  166.9013 F       1  UNL1       -0.1644
     22 F         138.6228  137.0745  165.4278 F       1  UNL1       -0.1644
     23 F         138.1356  139.9883  165.9496 F       1  UNL1       -0.1644
     24 N         142.4524  138.8066  156.3828 N.pl3   1  UNL1       -0.2203
     25 H         142.0712  139.3652  155.6673 H       1  UNL1        0.2456
     26 C         143.3777  137.6769  156.0399 C.3     1  UNL1        0.1927
     27 C         142.8784  136.5183  155.2287 C.ar    1  UNL1        0.0412
     28 C         142.3513  136.7449  153.8427 C.ar    1  UNL1        0.1391
     29 F         142.3236  138.1302  153.2681 F       1  UNL1       -0.2044
     30 C         141.8520  135.5862  153.0314 C.ar    1  UNL1        0.0325
     31 C         141.8797  134.2009  153.6060 C.ar    1  UNL1        0.0389
     32 C         142.4067  133.9743  154.9920 C.ar    1  UNL1        0.1346
     33 C         142.9061  135.1330  155.8033 C.ar    1  UNL1        0.0168
     34 C         143.3650  134.6060  157.1306 C.3     1  UNL1        0.0766
     35 C         143.1493  133.1216  157.1396 C.3     1  UNL1        0.2101
     36 O         142.5570  132.7312  155.8178 O.3     1  UNL1       -0.4754
     37 C         143.4058  143.4479  163.9900 C.3     1  UNL1        0.1662
     38 C         144.6321  143.1660  164.8063 C.3     1  UNL1        0.3381
     39 F         145.5368  142.0294  164.4327 F       1  UNL1       -0.1965
     40 F         144.9538  144.0207  165.9963 F       1  UNL1       -0.1965
@<TRIPOS>BOND
     1     1     2    2
     2     2     3    1
     3     3     4    1
     4     4     5    2
     5     5     6    1
     6     6     7    1
     7     7    24    1
     8    24    26    1
     9    26    27    1
    10    27    28   ar
    11    28    29    1
    12    28    30   ar
    13    30    31   ar
    14    31    32   ar
    15    32    33   ar
    16    33    34    1
    17    34    35    1
    18    35    36    1
    19     7     8    2
    20     8     9    1
    21     9    10    2
    22    10    11    1
    23    11    12   ar
    24    12    13   ar
    25    13    14   ar
    26    14    20    1
    27    20    21    1
    28    20    22    1
    29    20    23    1
    30    14    15   ar
    31    15    16   ar
    32    16    17    1
    33    17    18    1
    34    18    37    1
    35    37    38    1
    36    38    39    1
    37    38    40    1
    38    10    19    1
    39    18     2   am
    40    19     3    1
    41    19     6    1
    42    33    27   ar
    43    16    11   ar
    44    36    32    1
    45    24    25    1
