@<TRIPOS>MOLECULE
*****
 36 40 0 0 0
SMALL
GASTEIGER

@<TRIPOS>ATOM
      1 C         138.4379  139.7334  159.3631 C.ar    1  UNL1        0.0503
      2 C         137.3967  139.6979  160.4423 C.ar    1  UNL1        0.0143
      3 C         137.7410  139.1593  161.7993 C.ar    1  UNL1       -0.0029
      4 C         139.1265  138.6562  162.0770 C.ar    1  UNL1       -0.0208
      5 C         140.1677  138.6917  160.9978 C.ar    1  UNL1       -0.0029
      6 C         139.8234  139.2303  159.6408 C.ar    1  UNL1        0.0143
      7 O         138.1415  142.6905  158.9540 O.2     1  UNL1       -0.2727
      8 C         137.9453  141.7507  157.8016 C.2     1  UNL1        0.2469
      9 N         138.0935  140.2720  158.0062 N.am    1  UNL1       -0.2824
     10 H         137.9648  139.6551  157.2498 H       1  UNL1        0.1549
     11 C         137.6010  142.2893  156.4446 C.3     1  UNL1        0.1648
     12 C         138.3599  143.3448  155.6964 C.3     1  UNL1        0.0383
     13 C         137.6652  143.5748  154.3870 C.3     1  UNL1        0.0463
     14 C         136.4770  142.6614  154.3260 C.ar    1  UNL1        0.0403
     15 C         135.4260  142.4504  153.2768 C.ar    1  UNL1        0.0130
     16 C         134.3353  141.4450  153.4992 C.ar    1  UNL1        0.0060
     17 C         134.2957  140.6505  154.7709 C.ar    1  UNL1        0.0608
     18 C         135.3466  140.8614  155.8201 C.ar    1  UNL1        0.2610
     19 O         135.3069  140.0669  157.0918 O.2     1  UNL1       -0.2670
     20 N         136.4373  141.8669  155.5977 N.ar    1  UNL1       -0.2926
     21 C         139.4710  138.1176  163.4339 C.3     1  UNL1        0.0420
     22 C         139.4958  139.0347  164.6206 C.3     1  UNL1        0.0585
     23 C         139.0371  138.6944  166.0077 C.3     1  UNL1        0.0175
     24 C         139.2415  139.9025  166.8730 C.3     1  UNL1        0.0199
     25 C         139.8265  140.9894  166.0208 C.3     1  UNL1        0.0855
     26 N         139.9837  140.4531  164.6287 N.3     1  UNL1       -0.2971
     27 H         140.9659  140.4829  164.3552 H       1  UNL1        0.1233
     28 C         140.1905  142.3702  166.4799 C.3     1  UNL1        0.1470
     29 O         139.7219  143.5661  165.7051 O.3     1  UNL1       -0.3787
     30 H         140.0420  144.3750  166.1340 H       1  UNL1        0.2108
     31 C         141.0231  142.5553  167.7138 C.ar    1  UNL1        0.0055
     32 C         142.4277  142.0306  167.7565 C.ar    1  UNL1       -0.0019
     33 C         143.2603  142.2156  168.9904 C.ar    1  UNL1       -0.0002
     34 C         142.6883  142.9254  170.1816 C.ar    1  UNL1       -0.0000
     35 C         141.2837  143.4501  170.1389 C.ar    1  UNL1       -0.0002
     36 C         140.4511  143.2651  168.9051 C.ar    1  UNL1       -0.0019
@<TRIPOS>BOND
     1     7     8    2
     2     8     9   am
     3     9     1    1
     4     1     2   ar
     5     2     3   ar
     6     3     4   ar
     7     4    21    1
     8    22    21    1
     9    22    23    1
    10    23    24    1
    11    25    24    1
    12    25    28    1
    13    28    29    1
    14    28    31    1
    15    31    32   ar
    16    32    33   ar
    17    33    34   ar
    18    34    35   ar
    19    35    36   ar
    20    25    26    1
    21     4     5   ar
    22     5     6   ar
    23    11     8    1
    24    11    12    1
    25    12    13    1
    26    13    14    1
    27    14    15   ar
    28    15    16   ar
    29    16    17   ar
    30    17    18   ar
    31    18    19    2
    32    18    20   ar
    33     6     1   ar
    34    20    11    1
    35    26    22    1
    36    20    14   ar
    37    36    31   ar
    38     9    10    1
    39    29    30    1
    40    26    27    1
@<TRIPOS>MOLECULE
*****
 36 40 0 0 0
SMALL
GASTEIGER

@<TRIPOS>ATOM
      1 C         143.2259  138.4406  159.1888 C.ar    1  UNL1        0.0503
      2 C         143.4736  139.9161  159.2957 C.ar    1  UNL1        0.0143
      3 C         143.7809  140.5304  160.6292 C.ar    1  UNL1       -0.0029
      4 C         143.8405  139.6691  161.8558 C.ar    1  UNL1       -0.0208
      5 C         143.5929  138.1935  161.7489 C.ar    1  UNL1       -0.0029
      6 C         143.2856  137.5792  160.4154 C.ar    1  UNL1        0.0143
      7 O         140.3779  138.1469  158.2931 O.2     1  UNL1       -0.2727
      8 C         141.4945  137.6795  157.4075 C.2     1  UNL1        0.2469
      9 N         142.9186  137.8263  157.8553 N.am    1  UNL1       -0.2824
     10 H         143.6516  137.5195  157.2740 H       1  UNL1        0.1549
     11 C         141.1872  137.0652  156.0739 C.3     1  UNL1        0.1648
     12 C         140.3080  137.6567  155.0123 C.3     1  UNL1        0.0383
     13 C         140.2827  136.7086  153.8502 C.3     1  UNL1        0.0463
     14 C         141.1461  135.5311  154.1937 C.ar    1  UNL1        0.0403
     15 C         141.4955  134.2867  153.4325 C.ar    1  UNL1        0.0130
     16 C         142.4040  133.2628  154.0457 C.ar    1  UNL1        0.0060
     17 C         142.9631  133.4831  155.4201 C.ar    1  UNL1        0.0608
     18 C         142.6137  134.7275  156.1812 C.ar    1  UNL1        0.2610
     19 O         143.1727  134.9479  157.5556 O.2     1  UNL1       -0.2670
     20 N         141.7052  135.7515  155.5680 N.ar    1  UNL1       -0.2926
     21 C         144.1478  140.2833  163.1893 C.3     1  UNL1        0.0420
     22 C         143.3489  139.8922  164.3971 C.3     1  UNL1        0.0585
     23 C         143.8158  139.0069  165.5144 C.3     1  UNL1        0.0175
     24 C         142.6983  138.8852  166.5075 C.3     1  UNL1        0.0199
     25 C         141.5406  139.6953  166.0040 C.3     1  UNL1        0.0855
     26 N         141.9427  140.3177  164.6997 N.3     1  UNL1       -0.2971
     27 H         141.8966  141.3340  164.7724 H       1  UNL1        0.1233
     28 C         140.2138  139.8551  166.6851 C.3     1  UNL1        0.1470
     29 O         139.0138  139.1150  166.1729 O.3     1  UNL1       -0.3787
     30 H         138.2434  139.3285  166.7223 H       1  UNL1        0.2108
     31 C         140.0868  140.7549  167.8785 C.ar    1  UNL1        0.0055
     32 C         140.6977  142.1246  167.8534 C.ar    1  UNL1       -0.0019
     33 C         140.5707  143.0244  169.0468 C.ar    1  UNL1       -0.0002
     34 C         139.8329  142.5545  170.2653 C.ar    1  UNL1       -0.0000
     35 C         139.2220  141.1848  170.2904 C.ar    1  UNL1       -0.0002
     36 C         139.3489  140.2849  169.0971 C.ar    1  UNL1       -0.0019
@<TRIPOS>BOND
     1     7     8    2
     2     8     9   am
     3     9     1    1
     4     1     2   ar
     5     2     3   ar
     6     3     4   ar
     7     4    21    1
     8    22    21    1
     9    22    23    1
    10    23    24    1
    11    25    24    1
    12    25    28    1
    13    28    29    1
    14    28    31    1
    15    31    32   ar
    16    32    33   ar
    17    33    34   ar
    18    34    35   ar
    19    35    36   ar
    20    25    26    1
    21     4     5   ar
    22     5     6   ar
    23    11     8    1
    24    11    12    1
    25    12    13    1
    26    13    14    1
    27    14    15   ar
    28    15    16   ar
    29    16    17   ar
    30    17    18   ar
    31    18    19    2
    32    18    20   ar
    33     6     1   ar
    34    20    11    1
    35    26    22    1
    36    20    14   ar
    37    36    31   ar
    38     9    10    1
    39    29    30    1
    40    26    27    1
@<TRIPOS>MOLECULE
*****
 36 40 0 0 0
SMALL
GASTEIGER

@<TRIPOS>ATOM
      1 C         138.5678  141.0056  160.7330 C.ar    1  UNL1        0.0503
      2 C         137.6646  140.0580  161.4653 C.ar    1  UNL1        0.0143
      3 C         138.1790  139.2969  162.6511 C.ar    1  UNL1       -0.0029
      4 C         139.5965  139.4835  163.1046 C.ar    1  UNL1       -0.0208
      5 C         140.4997  140.4311  162.3724 C.ar    1  UNL1       -0.0029
      6 C         139.9854  141.1922  161.1866 C.ar    1  UNL1        0.0143
      7 O         138.3485  139.6545  158.0636 O.2     1  UNL1       -0.2727
      8 C         137.9439  141.0911  158.2124 C.2     1  UNL1        0.2469
      9 N         138.0535  141.7667  159.5472 N.am    1  UNL1       -0.2824
     10 H         137.7879  142.7097  159.6449 H       1  UNL1        0.1549
     11 C         137.4295  141.8522  157.0265 C.3     1  UNL1        0.1648
     12 C         136.2597  141.4660  156.1708 C.3     1  UNL1        0.0383
     13 C         136.1019  142.5083  155.1037 C.3     1  UNL1        0.0463
     14 C         137.1743  143.5386  155.2998 C.ar    1  UNL1        0.0403
     15 C         137.5097  144.7936  154.5499 C.ar    1  UNL1        0.0130
     16 C         138.6655  145.6431  154.9883 C.ar    1  UNL1        0.0060
     17 C         139.4861  145.2376  156.1767 C.ar    1  UNL1        0.0608
     18 C         139.1507  143.9826  156.9267 C.ar    1  UNL1        0.2610
     19 O         139.9712  143.5771  158.1151 O.2     1  UNL1       -0.2670
     20 N         137.9948  143.1331  156.4883 N.ar    1  UNL1       -0.2926
     21 C         140.1109  138.7224  164.2905 C.3     1  UNL1        0.0420
     22 C         139.4830  138.9201  165.6383 C.3     1  UNL1        0.0585
     23 C         138.1462  138.3970  166.0736 C.3     1  UNL1        0.0175
     24 C         137.9186  138.8292  167.4918 C.3     1  UNL1        0.0199
     25 C         139.1148  139.6193  167.9332 C.3     1  UNL1        0.0855
     26 N         140.0817  139.6755  166.7877 N.3     1  UNL1       -0.2971
     27 H         140.9664  139.2471  167.0601 H       1  UNL1        0.1233
     28 C         139.3100  140.2436  169.2830 C.3     1  UNL1        0.1470
     29 O         138.3007  140.0139  170.3687 O.3     1  UNL1       -0.3787
     30 H         138.5759  140.4848  171.1708 H       1  UNL1        0.2108
     31 C         140.5145  141.0977  169.5473 C.ar    1  UNL1        0.0055
     32 C         140.3648  142.5841  169.6825 C.ar    1  UNL1       -0.0019
     33 C         141.5693  143.4382  169.9467 C.ar    1  UNL1       -0.0002
     34 C         142.9233  142.8059  170.0759 C.ar    1  UNL1       -0.0000
     35 C         143.0730  141.3195  169.9407 C.ar    1  UNL1       -0.0002
     36 C         141.8686  140.4654  169.6764 C.ar    1  UNL1       -0.0019
@<TRIPOS>BOND
     1     7     8    2
     2     8     9   am
     3     9     1    1
     4     1     2   ar
     5     2     3   ar
     6     3     4   ar
     7     4    21    1
     8    22    21    1
     9    22    23    1
    10    23    24    1
    11    25    24    1
    12    25    28    1
    13    28    29    1
    14    28    31    1
    15    31    32   ar
    16    32    33   ar
    17    33    34   ar
    18    34    35   ar
    19    35    36   ar
    20    25    26    1
    21     4     5   ar
    22     5     6   ar
    23    11     8    1
    24    11    12    1
    25    12    13    1
    26    13    14    1
    27    14    15   ar
    28    15    16   ar
    29    16    17   ar
    30    17    18   ar
    31    18    19    2
    32    18    20   ar
    33     6     1   ar
    34    20    11    1
    35    26    22    1
    36    20    14   ar
    37    36    31   ar
    38     9    10    1
    39    29    30    1
    40    26    27    1
@<TRIPOS>MOLECULE
*****
 36 40 0 0 0
SMALL
GASTEIGER

@<TRIPOS>ATOM
      1 C         143.2824  138.5404  159.4134 C.ar    1  UNL1        0.0503
      2 C         143.6815  139.9751  159.5929 C.ar    1  UNL1        0.0143
      3 C         144.0601  140.4838  160.9522 C.ar    1  UNL1       -0.0029
      4 C         144.0395  139.5578  162.1320 C.ar    1  UNL1       -0.0208
      5 C         143.6404  138.1231  161.9526 C.ar    1  UNL1       -0.0029
      6 C         143.2618  137.6143  160.5932 C.ar    1  UNL1        0.0143
      7 O         140.3898  138.2590  158.6691 O.2     1  UNL1       -0.2727
      8 C         141.4574  137.8909  157.6819 C.2     1  UNL1        0.2469
      9 N         142.9037  138.0316  158.0541 N.am    1  UNL1       -0.2824
     10 H         143.6045  137.7900  157.4061 H       1  UNL1        0.1549
     11 C         141.0788  137.3821  156.3226 C.3     1  UNL1        0.1648
     12 C         140.1348  138.0458  155.3642 C.3     1  UNL1        0.0383
     13 C         140.0503  137.1942  154.1323 C.3     1  UNL1        0.0463
     14 C         140.9421  136.0042  154.3293 C.ar    1  UNL1        0.0403
     15 C         141.2574  134.8299  153.4510 C.ar    1  UNL1        0.0130
     16 C         142.2083  133.7717  153.9263 C.ar    1  UNL1        0.0060
     17 C         142.8439  133.8879  155.2800 C.ar    1  UNL1        0.0608
     18 C         142.5286  135.0622  156.1584 C.ar    1  UNL1        0.2610
     19 O         143.1642  135.1784  157.5121 O.2     1  UNL1       -0.2670
     20 N         141.5777  136.1204  155.6830 N.ar    1  UNL1       -0.2926
     21 C         144.4181  140.0665  163.4914 C.3     1  UNL1        0.0420
     22 C         143.4271  140.0102  164.6160 C.3     1  UNL1        0.0585
     23 C         143.4224  139.0148  165.7382 C.3     1  UNL1        0.0175
     24 C         142.2592  139.3288  166.6316 C.3     1  UNL1        0.0199
     25 C         141.5449  140.5183  166.0617 C.3     1  UNL1        0.0855
     26 N         142.2667  140.9395  164.8160 N.3     1  UNL1       -0.2971
     27 H         142.6035  141.8969  164.9180 H       1  UNL1        0.1233
     28 C         140.3234  141.1720  166.6365 C.3     1  UNL1        0.1470
     29 O         139.8940  140.8575  168.0389 O.3     1  UNL1       -0.3787
     30 H         139.0926  141.3606  168.2522 H       1  UNL1        0.2108
     31 C         139.5310  142.1401  165.8089 C.ar    1  UNL1        0.0055
     32 C         139.7855  143.6135  165.9295 C.ar    1  UNL1       -0.0019
     33 C         138.9931  144.5816  165.1019 C.ar    1  UNL1       -0.0002
     34 C         137.9463  144.0764  164.1538 C.ar    1  UNL1       -0.0000
     35 C         137.6919  142.6031  164.0332 C.ar    1  UNL1       -0.0002
     36 C         138.4842  141.6349  164.8607 C.ar    1  UNL1       -0.0019
@<TRIPOS>BOND
     1     7     8    2
     2     8     9   am
     3     9     1    1
     4     1     2   ar
     5     2     3   ar
     6     3     4   ar
     7     4    21    1
     8    22    21    1
     9    22    23    1
    10    23    24    1
    11    25    24    1
    12    25    28    1
    13    28    29    1
    14    28    31    1
    15    31    32   ar
    16    32    33   ar
    17    33    34   ar
    18    34    35   ar
    19    35    36   ar
    20    25    26    1
    21     4     5   ar
    22     5     6   ar
    23    11     8    1
    24    11    12    1
    25    12    13    1
    26    13    14    1
    27    14    15   ar
    28    15    16   ar
    29    16    17   ar
    30    17    18   ar
    31    18    19    2
    32    18    20   ar
    33     6     1   ar
    34    20    11    1
    35    26    22    1
    36    20    14   ar
    37    36    31   ar
    38     9    10    1
    39    29    30    1
    40    26    27    1
@<TRIPOS>MOLECULE
*****
 36 40 0 0 0
SMALL
GASTEIGER

@<TRIPOS>ATOM
      1 C         142.9522  138.3877  157.8801 C.ar    1  UNL1        0.0503
      2 C         142.9250  139.7545  157.2629 C.ar    1  UNL1        0.0143
      3 C         142.6967  140.9617  158.1235 C.ar    1  UNL1       -0.0029
      4 C         142.4957  140.8019  159.6013 C.ar    1  UNL1       -0.0208
      5 C         142.5229  139.4351  160.2185 C.ar    1  UNL1       -0.0029
      6 C         142.7511  138.2279  159.3579 C.ar    1  UNL1        0.0143
      7 O         140.6169  136.9461  156.6684 O.2     1  UNL1       -0.2727
      8 C         142.0127  136.4597  156.4136 C.2     1  UNL1        0.2469
      9 N         143.1804  137.1805  157.0195 N.am    1  UNL1       -0.2824
     10 H         144.0966  136.8613  156.8523 H       1  UNL1        0.1549
     11 C         142.2410  135.2525  155.5530 C.3     1  UNL1        0.1648
     12 C         141.7970  135.0877  154.1297 C.3     1  UNL1        0.0383
     13 C         142.2350  133.7315  153.6617 C.3     1  UNL1        0.0463
     14 C         142.9496  133.0582  154.7957 C.ar    1  UNL1        0.0403
     15 C         143.5974  131.7106  154.9149 C.ar    1  UNL1        0.0130
     16 C         144.2490  131.3031  156.2030 C.ar    1  UNL1        0.0060
     17 C         144.2527  132.2431  157.3719 C.ar    1  UNL1        0.0608
     18 C         143.6049  133.5907  157.2527 C.ar    1  UNL1        0.2610
     19 O         143.6086  134.5307  158.4216 O.2     1  UNL1       -0.2670
     20 N         142.9533  133.9983  155.9646 N.ar    1  UNL1       -0.2926
     21 C         142.2674  142.0090  160.4620 C.3     1  UNL1        0.0420
     22 C         140.9339  142.2235  161.1145 C.3     1  UNL1        0.0585
     23 C         139.9793  143.3432  160.8227 C.3     1  UNL1        0.0175
     24 C         138.7763  143.1676  161.7012 C.3     1  UNL1        0.0199
     25 C         138.9873  141.9395  162.5361 C.3     1  UNL1        0.0855
     26 N         140.3208  141.3559  162.1736 N.3     1  UNL1       -0.2971
     27 H         140.1984  140.4083  161.8167 H       1  UNL1        0.1233
     28 C         138.0326  141.3910  163.5548 C.3     1  UNL1        0.1470
     29 O         136.5702  141.2924  163.2355 O.3     1  UNL1       -0.3787
     30 H         136.0976  140.9197  163.9962 H       1  UNL1        0.2108
     31 C         138.5400  140.9412  164.8927 C.ar    1  UNL1        0.0055
     32 C         139.5022  141.8010  165.6577 C.ar    1  UNL1       -0.0019
     33 C         140.0097  141.3512  166.9956 C.ar    1  UNL1       -0.0002
     34 C         139.5550  140.0416  167.5686 C.ar    1  UNL1       -0.0000
     35 C         138.5929  139.1819  166.8037 C.ar    1  UNL1       -0.0002
     36 C         138.0854  139.6316  165.4658 C.ar    1  UNL1       -0.0019
@<TRIPOS>BOND
     1     7     8    2
     2     8     9   am
     3     9     1    1
     4     1     2   ar
     5     2     3   ar
     6     3     4   ar
     7     4    21    1
     8    22    21    1
     9    22    23    1
    10    23    24    1
    11    25    24    1
    12    25    28    1
    13    28    29    1
    14    28    31    1
    15    31    32   ar
    16    32    33   ar
    17    33    34   ar
    18    34    35   ar
    19    35    36   ar
    20    25    26    1
    21     4     5   ar
    22     5     6   ar
    23    11     8    1
    24    11    12    1
    25    12    13    1
    26    13    14    1
    27    14    15   ar
    28    15    16   ar
    29    16    17   ar
    30    17    18   ar
    31    18    19    2
    32    18    20   ar
    33     6     1   ar
    34    20    11    1
    35    26    22    1
    36    20    14   ar
    37    36    31   ar
    38     9    10    1
    39    29    30    1
    40    26    27    1
@<TRIPOS>MOLECULE
*****
 36 40 0 0 0
SMALL
GASTEIGER

@<TRIPOS>ATOM
      1 C         138.3922  139.6835  159.5641 C.ar    1  UNL1        0.0503
      2 C         137.4771  139.9774  160.7157 C.ar    1  UNL1        0.0143
      3 C         137.7558  139.3848  162.0652 C.ar    1  UNL1       -0.0029
      4 C         138.9495  138.4984  162.2631 C.ar    1  UNL1       -0.0208
      5 C         139.8647  138.2046  161.1115 C.ar    1  UNL1       -0.0029
      6 C         139.5860  138.7972  159.7620 C.ar    1  UNL1        0.0143
      7 O         138.2067  142.6604  159.2423 O.2     1  UNL1       -0.2727
      8 C         138.0208  141.7646  158.0537 C.2     1  UNL1        0.2469
      9 N         138.1136  140.2761  158.2146 N.am    1  UNL1       -0.2824
     10 H         137.9916  139.6881  157.4344 H       1  UNL1        0.1549
     11 C         137.7422  142.3572  156.7041 C.3     1  UNL1        0.1648
     12 C         138.5375  143.4387  156.0348 C.3     1  UNL1        0.0383
     13 C         137.9061  143.7222  154.7040 C.3     1  UNL1        0.0463
     14 C         136.7206  142.8159  154.5509 C.ar    1  UNL1        0.0403
     15 C         135.7204  142.6499  153.4455 C.ar    1  UNL1        0.0130
     16 C         134.6188  141.6403  153.5763 C.ar    1  UNL1        0.0060
     17 C         134.5175  140.7967  154.8125 C.ar    1  UNL1        0.0608
     18 C         135.5178  140.9627  155.9179 C.ar    1  UNL1        0.2610
     19 O         135.4165  140.1191  157.1540 O.2     1  UNL1       -0.2670
     20 N         136.6193  141.9723  155.7870 N.ar    1  UNL1       -0.2926
     21 C         139.2283  137.9058  163.6126 C.3     1  UNL1        0.0420
     22 C         139.3342  138.7960  164.8152 C.3     1  UNL1        0.0585
     23 C         138.5864  138.6286  166.1048 C.3     1  UNL1        0.0175
     24 C         138.9965  139.7390  167.0260 C.3     1  UNL1        0.0199
     25 C         139.9977  140.5928  166.3059 C.3     1  UNL1        0.0855
     26 N         140.2064  140.0100  164.9395 N.3     1  UNL1       -0.2971
     27 H         141.1847  139.7469  164.8211 H       1  UNL1        0.1233
     28 C         140.6718  141.8149  166.8555 C.3     1  UNL1        0.1470
     29 O         140.3348  142.3016  168.2337 O.3     1  UNL1       -0.3787
     30 H         140.8554  143.0955  168.4326 H       1  UNL1        0.2108
     31 C         141.6831  142.5503  166.0269 C.ar    1  UNL1        0.0055
     32 C         141.2300  143.4609  164.9244 C.ar    1  UNL1       -0.0019
     33 C         142.2413  144.1963  164.0958 C.ar    1  UNL1       -0.0002
     34 C         143.7056  144.0211  164.3698 C.ar    1  UNL1       -0.0000
     35 C         144.1586  143.1104  165.4723 C.ar    1  UNL1       -0.0002
     36 C         143.1475  142.3750  166.3008 C.ar    1  UNL1       -0.0019
@<TRIPOS>BOND
     1     7     8    2
     2     8     9   am
     3     9     1    1
     4     1     2   ar
     5     2     3   ar
     6     3     4   ar
     7     4    21    1
     8    22    21    1
     9    22    23    1
    10    23    24    1
    11    25    24    1
    12    25    28    1
    13    28    29    1
    14    28    31    1
    15    31    32   ar
    16    32    33   ar
    17    33    34   ar
    18    34    35   ar
    19    35    36   ar
    20    25    26    1
    21     4     5   ar
    22     5     6   ar
    23    11     8    1
    24    11    12    1
    25    12    13    1
    26    13    14    1
    27    14    15   ar
    28    15    16   ar
    29    16    17   ar
    30    17    18   ar
    31    18    19    2
    32    18    20   ar
    33     6     1   ar
    34    20    11    1
    35    26    22    1
    36    20    14   ar
    37    36    31   ar
    38     9    10    1
    39    29    30    1
    40    26    27    1
@<TRIPOS>MOLECULE
*****
 36 40 0 0 0
SMALL
GASTEIGER

@<TRIPOS>ATOM
      1 C         140.4820  139.4583  160.9825 C.ar    1  UNL1        0.0503
      2 C         139.4703  139.2106  159.9031 C.ar    1  UNL1        0.0143
      3 C         139.9224  138.9522  158.4964 C.ar    1  UNL1       -0.0029
      4 C         141.3862  138.9414  158.1692 C.ar    1  UNL1       -0.0208
      5 C         142.3979  139.1891  159.2485 C.ar    1  UNL1       -0.0029
      6 C         141.9458  139.4475  160.6553 C.ar    1  UNL1        0.0143
      7 O         140.4207  137.2158  162.9743 O.2     1  UNL1       -0.2727
      8 C         139.9992  138.5954  163.3851 C.2     1  UNL1        0.2469
      9 N         140.0299  139.7168  162.3892 N.am    1  UNL1       -0.2824
     10 H         139.7533  140.6223  162.6588 H       1  UNL1        0.1549
     11 C         139.5471  138.8539  164.7918 C.3     1  UNL1        0.1648
     12 C         138.4092  138.1717  165.4916 C.3     1  UNL1        0.0383
     13 C         138.3124  138.7361  166.8780 C.3     1  UNL1        0.0463
     14 C         139.3905  139.7672  167.0350 C.ar    1  UNL1        0.0403
     15 C         139.7759  140.6492  168.1854 C.ar    1  UNL1        0.0130
     16 C         140.9244  141.6039  168.0465 C.ar    1  UNL1        0.0060
     17 C         141.6875  141.6767  166.7572 C.ar    1  UNL1        0.0608
     18 C         141.3021  140.7947  165.6068 C.ar    1  UNL1        0.2610
     19 O         142.0652  140.8675  164.3174 O.2     1  UNL1       -0.2670
     20 N         140.1536  139.8400  165.7457 N.ar    1  UNL1       -0.2926
     21 C         141.8385  138.6829  156.7624 C.3     1  UNL1        0.0420
     22 C         142.6553  137.4645  156.4492 C.3     1  UNL1        0.0585
     23 C         143.6740  137.3433  155.3548 C.3     1  UNL1        0.0175
     24 C         144.2452  135.9572  155.4046 C.3     1  UNL1        0.0199
     25 C         143.5797  135.2218  156.5298 C.3     1  UNL1        0.0855
     26 N         142.5970  136.1533  157.1754 N.3     1  UNL1       -0.2971
     27 H         142.8421  136.2895  158.1561 H       1  UNL1        0.1233
     28 C         143.8493  133.8038  156.9378 C.3     1  UNL1        0.1470
     29 O         144.1355  133.4780  158.3738 O.3     1  UNL1       -0.3787
     30 H         144.2863  132.5241  158.4651 H       1  UNL1        0.2108
     31 C         143.8327  132.7114  155.9099 C.ar    1  UNL1        0.0055
     32 C         144.7155  131.5104  156.0775 C.ar    1  UNL1       -0.0019
     33 C         144.6989  130.4180  155.0496 C.ar    1  UNL1       -0.0002
     34 C         143.7995  130.5268  153.8542 C.ar    1  UNL1       -0.0000
     35 C         142.9167  131.7279  153.6865 C.ar    1  UNL1       -0.0002
     36 C         142.9332  132.8202  154.7143 C.ar    1  UNL1       -0.0019
@<TRIPOS>BOND
     1     7     8    2
     2     8     9   am
     3     9     1    1
     4     1     2   ar
     5     2     3   ar
     6     3     4   ar
     7     4    21    1
     8    22    21    1
     9    22    23    1
    10    23    24    1
    11    25    24    1
    12    25    28    1
    13    28    29    1
    14    28    31    1
    15    31    32   ar
    16    32    33   ar
    17    33    34   ar
    18    34    35   ar
    19    35    36   ar
    20    25    26    1
    21     4     5   ar
    22     5     6   ar
    23    11     8    1
    24    11    12    1
    25    12    13    1
    26    13    14    1
    27    14    15   ar
    28    15    16   ar
    29    16    17   ar
    30    17    18   ar
    31    18    19    2
    32    18    20   ar
    33     6     1   ar
    34    20    11    1
    35    26    22    1
    36    20    14   ar
    37    36    31   ar
    38     9    10    1
    39    29    30    1
    40    26    27    1
@<TRIPOS>MOLECULE
*****
 36 40 0 0 0
SMALL
GASTEIGER

@<TRIPOS>ATOM
      1 C         142.7477  137.9654  158.5206 C.ar    1  UNL1        0.0503
      2 C         142.9648  139.4382  158.3371 C.ar    1  UNL1        0.0143
      3 C         143.4695  140.2699  159.4789 C.ar    1  UNL1       -0.0029
      4 C         143.7569  139.6288  160.8041 C.ar    1  UNL1       -0.0208
      5 C         143.5398  138.1560  160.9876 C.ar    1  UNL1       -0.0029
      6 C         143.0351  137.3243  159.8458 C.ar    1  UNL1        0.0143
      7 O         144.4352  137.6052  156.0665 O.2     1  UNL1       -0.2727
      8 C         143.0869  136.9536  156.1517 C.2     1  UNL1        0.2469
      9 N         142.2431  137.1337  157.3788 N.am    1  UNL1       -0.2824
     10 H         141.3581  136.7060  157.4348 H       1  UNL1        0.1549
     11 C         142.5823  136.1219  155.0099 C.3     1  UNL1        0.1648
     12 C         142.2124  136.6273  153.6470 C.3     1  UNL1        0.0383
     13 C         141.7605  135.4565  152.8254 C.3     1  UNL1        0.0463
     14 C         141.8511  134.2275  153.6806 C.ar    1  UNL1        0.0403
     15 C         141.5368  132.7871  153.4044 C.ar    1  UNL1        0.0130
     16 C         141.7304  131.7579  154.4782 C.ar    1  UNL1        0.0060
     17 C         142.2383  132.1692  155.8284 C.ar    1  UNL1        0.0608
     18 C         142.5526  133.6096  156.1046 C.ar    1  UNL1        0.2610
     19 O         143.0606  134.0208  157.4548 O.2     1  UNL1       -0.2670
     20 N         142.3590  134.6388  155.0307 N.ar    1  UNL1       -0.2926
     21 C         144.2615  140.4604  161.9459 C.3     1  UNL1        0.0420
     22 C         143.6252  140.3414  163.2990 C.3     1  UNL1        0.0585
     23 C         144.2596  139.7496  164.5228 C.3     1  UNL1        0.0175
     24 C         143.2693  139.8356  165.6461 C.3     1  UNL1        0.0199
     25 C         142.0228  140.4806  165.1166 C.3     1  UNL1        0.0855
     26 N         142.2427  140.7932  163.6661 N.3     1  UNL1       -0.2971
     27 H         142.1542  141.7974  163.5111 H       1  UNL1        0.1233
     28 C         140.7753  140.7634  165.9001 C.3     1  UNL1        0.1470
     29 O         140.4717  139.9725  167.1380 O.3     1  UNL1       -0.3787
     30 H         139.6349  140.2795  167.5207 H       1  UNL1        0.2108
     31 C         139.8314  141.8369  165.4457 C.ar    1  UNL1        0.0055
     32 C         140.1163  143.2732  165.7714 C.ar    1  UNL1       -0.0019
     33 C         139.1724  144.3468  165.3171 C.ar    1  UNL1       -0.0002
     34 C         137.9437  143.9841  164.5369 C.ar    1  UNL1       -0.0000
     35 C         137.6588  142.5479  164.2112 C.ar    1  UNL1       -0.0002
     36 C         138.6026  141.4743  164.6655 C.ar    1  UNL1       -0.0019
@<TRIPOS>BOND
     1     7     8    2
     2     8     9   am
     3     9     1    1
     4     1     2   ar
     5     2     3   ar
     6     3     4   ar
     7     4    21    1
     8    22    21    1
     9    22    23    1
    10    23    24    1
    11    25    24    1
    12    25    28    1
    13    28    29    1
    14    28    31    1
    15    31    32   ar
    16    32    33   ar
    17    33    34   ar
    18    34    35   ar
    19    35    36   ar
    20    25    26    1
    21     4     5   ar
    22     5     6   ar
    23    11     8    1
    24    11    12    1
    25    12    13    1
    26    13    14    1
    27    14    15   ar
    28    15    16   ar
    29    16    17   ar
    30    17    18   ar
    31    18    19    2
    32    18    20   ar
    33     6     1   ar
    34    20    11    1
    35    26    22    1
    36    20    14   ar
    37    36    31   ar
    38     9    10    1
    39    29    30    1
    40    26    27    1
@<TRIPOS>MOLECULE
*****
 36 40 0 0 0
SMALL
GASTEIGER

@<TRIPOS>ATOM
      1 C         143.2771  138.4891  159.4192 C.ar    1  UNL1        0.0503
      2 C         143.6453  139.9365  159.5583 C.ar    1  UNL1        0.0143
      3 C         143.9918  140.4961  160.9062 C.ar    1  UNL1       -0.0029
      4 C         143.9700  139.6082  162.1149 C.ar    1  UNL1       -0.0208
      5 C         143.6018  138.1608  161.9758 C.ar    1  UNL1       -0.0029
      6 C         143.2553  137.6012  160.6279 C.ar    1  UNL1        0.0143
      7 O         140.4045  138.2480  158.5885 O.2     1  UNL1       -0.2727
      8 C         141.4942  137.8090  157.6559 C.2     1  UNL1        0.2469
      9 N         142.9306  137.9296  158.0713 N.am    1  UNL1       -0.2824
     10 H         143.6458  137.6414  157.4593 H       1  UNL1        0.1549
     11 C         141.1477  137.2494  156.3080 C.3     1  UNL1        0.1648
     12 C         140.2226  137.8734  155.3056 C.3     1  UNL1        0.0383
     13 C         140.1686  136.9772  154.1040 C.3     1  UNL1        0.0463
     14 C         141.0604  135.7994  154.3637 C.ar    1  UNL1        0.0403
     15 C         141.3996  134.5955  153.5359 C.ar    1  UNL1        0.0130
     16 C         142.3439  133.5597  154.0702 C.ar    1  UNL1        0.0060
     17 C         142.9490  133.7280  155.4324 C.ar    1  UNL1        0.0608
     18 C         142.6098  134.9319  156.2602 C.ar    1  UNL1        0.2610
     19 O         143.2149  135.1001  157.6224 O.2     1  UNL1       -0.2670
     20 N         141.6655  135.9676  155.7259 N.ar    1  UNL1       -0.2926
     21 C         144.3165  140.1677  163.4629 C.3     1  UNL1        0.0420
     22 C         143.9703  141.5885  163.7967 C.3     1  UNL1        0.0585
     23 C         144.8430  142.5581  164.5373 C.3     1  UNL1        0.0175
     24 C         144.1027  143.8580  164.6469 C.3     1  UNL1        0.0199
     25 C         142.7724  143.6919  163.9740 C.3     1  UNL1        0.0855
     26 N         142.6905  142.2892  163.4486 N.3     1  UNL1       -0.2971
     27 H         142.5691  142.3054  162.4360 H       1  UNL1        0.1233
     28 C         141.7103  144.7436  163.8486 C.3     1  UNL1        0.1470
     29 O         142.0908  146.1944  163.8222 O.3     1  UNL1       -0.3787
     30 H         141.2912  146.7369  163.7375 H       1  UNL1        0.2108
     31 C         140.2677  144.3448  163.7496 C.ar    1  UNL1        0.0055
     32 C         139.7325  143.7781  162.4680 C.ar    1  UNL1       -0.0019
     33 C         138.2899  143.3793  162.3690 C.ar    1  UNL1       -0.0002
     34 C         137.3825  143.5471  163.5515 C.ar    1  UNL1       -0.0000
     35 C         137.9177  144.1138  164.8331 C.ar    1  UNL1       -0.0002
     36 C         139.3602  144.5126  164.9322 C.ar    1  UNL1       -0.0019
@<TRIPOS>BOND
     1     7     8    2
     2     8     9   am
     3     9     1    1
     4     1     2   ar
     5     2     3   ar
     6     3     4   ar
     7     4    21    1
     8    22    21    1
     9    22    23    1
    10    23    24    1
    11    25    24    1
    12    25    28    1
    13    28    29    1
    14    28    31    1
    15    31    32   ar
    16    32    33   ar
    17    33    34   ar
    18    34    35   ar
    19    35    36   ar
    20    25    26    1
    21     4     5   ar
    22     5     6   ar
    23    11     8    1
    24    11    12    1
    25    12    13    1
    26    13    14    1
    27    14    15   ar
    28    15    16   ar
    29    16    17   ar
    30    17    18   ar
    31    18    19    2
    32    18    20   ar
    33     6     1   ar
    34    20    11    1
    35    26    22    1
    36    20    14   ar
    37    36    31   ar
    38     9    10    1
    39    29    30    1
    40    26    27    1
