@<TRIPOS>MOLECULE
*****
 34 39 0 0 0
SMALL
GASTEIGER

@<TRIPOS>ATOM
      1 C         142.1943  138.2277  160.0497 C.ar    1  UNL1        0.1074
      2 C         141.3368  138.9556  159.0573 C.ar    1  UNL1        0.0588
      3 S         141.6498  138.4182  157.6922 S.2     1  UNL1       -0.0508
      4 C         142.7006  137.3582  157.8410 C.ar    1  UNL1        0.1646
      5 N         143.0372  137.2405  159.2980 N.ar    1  UNL1       -0.2224
      6 C         143.0342  139.7836  163.6027 C.ar    1  UNL1        0.2416
      7 N         143.0219  139.5630  162.1190 N.ar    1  UNL1       -0.2089
      8 C         142.2067  138.4483  161.5333 C.ar    1  UNL1        0.1026
      9 C         141.4040  137.5542  162.4312 C.ar    1  UNL1        0.0224
     10 C         141.4164  137.7749  163.9149 C.ar    1  UNL1        0.0239
     11 C         142.2316  138.8896  164.5006 C.ar    1  UNL1        0.1189
     12 N         142.2440  139.1102  165.9842 N.ar    1  UNL1       -0.2826
     13 C         143.3290  138.6869  166.9296 C.ar    1  UNL1        0.1826
     14 N         142.9292  139.1079  168.3125 N.ar    1  UNL1       -0.2280
     15 C         141.5970  139.7915  168.2221 C.ar    1  UNL1        0.0786
     16 C         140.8241  140.3717  169.3692 C.3     1  UNL1        0.0538
     17 C         141.1736  139.7929  166.7830 C.ar    1  UNL1        0.0963
     18 C         145.3438  140.8822  164.0599 C.3     1  UNL1        0.2543
     19 O         143.8494  140.8983  164.1883 O.3     1  UNL1       -0.4551
     20 N         143.3083  136.5566  156.7282 N.pl3   1  UNL1       -0.2786
     21 H         144.0901  136.9043  156.2412 H       1  UNL1        0.1555
     22 C         142.7248  135.2254  156.3575 C.ar    1  UNL1        0.1274
     23 C         143.2599  133.8843  156.7637 C.ar    1  UNL1        0.0244
     24 C         142.3696  132.8316  156.1727 C.ar    1  UNL1        0.0773
     25 N         141.2842  133.5222  155.4013 N.ar    1  UNL1       -0.1730
     26 N         141.5037  135.0017  155.5155 N.ar    1  UNL1       -0.2402
     27 C         142.6622  131.3803  156.4134 C.3     1  UNL1        0.0474
     28 C         143.8452  130.9816  157.2450 C.3     1  UNL1        0.0067
     29 C         144.7355  132.0343  157.8359 C.3     1  UNL1        0.0052
     30 C         144.4429  133.4856  157.5953 C.3     1  UNL1        0.0305
     31 C         140.6518  136.0698  154.8964 C.3     1  UNL1        0.1065
     32 C         140.7059  136.8666  153.6266 C.3     1  UNL1        0.0245
     33 C         139.4469  137.5803  154.0209 C.3     1  UNL1        0.0040
     34 C         139.3927  136.7836  155.2906 C.3     1  UNL1        0.0245
@<TRIPOS>BOND
     1    18    19    1
     2    19     6    1
     3     6     7   ar
     4     7     8   ar
     5     8     1    1
     6     1     2   ar
     7     2     3   ar
     8     3     4   ar
     9     4    20    1
    10    20    22    1
    11    22    23   ar
    12    23    24   ar
    13    24    25   ar
    14    25    26   ar
    15    26    31    1
    16    31    32    1
    17    32    33    1
    18    33    34    1
    19    24    27    1
    20    27    28    1
    21    28    29    1
    22    29    30    1
    23     4     5   ar
    24     8     9   ar
    25     9    10   ar
    26    10    11   ar
    27    11    12    1
    28    12    13   ar
    29    13    14   ar
    30    14    15   ar
    31    15    16    1
    32    15    17   ar
    33    11     6   ar
    34    17    12   ar
    35     5     1   ar
    36    26    22   ar
    37    34    31    1
    38    30    23    1
    39    20    21    1
@<TRIPOS>MOLECULE
*****
 34 39 0 0 0
SMALL
GASTEIGER

@<TRIPOS>ATOM
      1 C         143.3841  142.2914  162.3987 C.ar    1  UNL1        0.1074
      2 C         144.8647  142.3734  162.6244 C.ar    1  UNL1        0.0588
      3 S         145.1823  141.6334  163.8899 S.2     1  UNL1       -0.0508
      4 C         143.8980  141.0940  164.4463 C.ar    1  UNL1        0.1646
      5 N         142.7866  141.5007  163.5246 N.ar    1  UNL1       -0.2224
      6 C         140.7348  144.4286  160.3582 C.ar    1  UNL1        0.2416
      7 N         141.4860  143.8258  161.5081 N.ar    1  UNL1       -0.2089
      8 C         142.6328  142.8942  161.2489 C.ar    1  UNL1        0.1026
      9 C         143.0283  142.5655  159.8397 C.ar    1  UNL1        0.0224
     10 C         142.2770  143.1684  158.6899 C.ar    1  UNL1        0.0239
     11 C         141.1303  144.1000  158.9492 C.ar    1  UNL1        0.1189
     12 N         140.3790  144.7028  157.7993 N.ar    1  UNL1       -0.2826
     13 C         139.4852  143.9656  156.8465 C.ar    1  UNL1        0.1826
     14 N         138.9434  144.9558  155.8588 N.ar    1  UNL1       -0.2280
     15 C         139.5024  146.3052  156.2010 C.ar    1  UNL1        0.0786
     16 C         139.2231  147.5859  155.4718 C.3     1  UNL1        0.0538
     17 C         140.3896  146.1487  157.4003 C.ar    1  UNL1        0.0963
     18 C         139.6604  146.3419  161.7492 C.3     1  UNL1        0.2543
     19 O         139.5881  145.3602  160.6175 O.3     1  UNL1       -0.4551
     20 N         143.7509  140.2892  165.7036 N.pl3   1  UNL1       -0.2786
     21 H         144.5003  139.7381  166.0259 H       1  UNL1        0.1555
     22 C         142.4618  140.3240  166.4698 C.ar    1  UNL1        0.1274
     23 C         142.1764  141.1668  167.6774 C.ar    1  UNL1        0.0244
     24 C         140.7701  140.8858  168.1169 C.ar    1  UNL1        0.0773
     25 N         140.1862  139.8694  167.1809 N.ar    1  UNL1       -0.1730
     26 N         141.2318  139.5222  166.1629 N.ar    1  UNL1       -0.2402
     27 C         140.2028  141.5918  169.3126 C.3     1  UNL1        0.0474
     28 C         141.0418  142.5787  170.0688 C.3     1  UNL1        0.0067
     29 C         142.4482  142.8596  169.6293 C.3     1  UNL1        0.0052
     30 C         143.0155  142.1537  168.4336 C.3     1  UNL1        0.0305
     31 C         141.0749  138.5448  165.0359 C.3     1  UNL1        0.1065
     32 C         141.9983  137.9395  164.0205 C.3     1  UNL1        0.0245
     33 C         140.8529  137.1625  163.4422 C.3     1  UNL1        0.0040
     34 C         139.9295  137.7677  164.4576 C.3     1  UNL1        0.0245
@<TRIPOS>BOND
     1    18    19    1
     2    19     6    1
     3     6     7   ar
     4     7     8   ar
     5     8     1    1
     6     1     2   ar
     7     2     3   ar
     8     3     4   ar
     9     4    20    1
    10    20    22    1
    11    22    23   ar
    12    23    24   ar
    13    24    25   ar
    14    25    26   ar
    15    26    31    1
    16    31    32    1
    17    32    33    1
    18    33    34    1
    19    24    27    1
    20    27    28    1
    21    28    29    1
    22    29    30    1
    23     4     5   ar
    24     8     9   ar
    25     9    10   ar
    26    10    11   ar
    27    11    12    1
    28    12    13   ar
    29    13    14   ar
    30    14    15   ar
    31    15    16    1
    32    15    17   ar
    33    11     6   ar
    34    17    12   ar
    35     5     1   ar
    36    26    22   ar
    37    34    31    1
    38    30    23    1
    39    20    21    1
@<TRIPOS>MOLECULE
*****
 34 39 0 0 0
SMALL
GASTEIGER

@<TRIPOS>ATOM
      1 C         142.7315  143.0630  162.9894 C.ar    1  UNL1        0.1074
      2 C         144.0874  143.4666  163.4877 C.ar    1  UNL1        0.0588
      3 S         144.3219  142.7802  164.8007 S.2     1  UNL1       -0.0508
      4 C         143.1109  141.9524  165.1137 C.ar    1  UNL1        0.1646
      5 N         142.1279  142.1271  163.9943 N.ar    1  UNL1       -0.2224
      6 C         142.2421  143.9711  159.1571 C.ar    1  UNL1        0.2416
      7 N         142.8823  143.5184  160.4359 N.ar    1  UNL1       -0.2089
      8 C         142.0914  143.5157  161.7106 C.ar    1  UNL1        0.1026
      9 C         140.6606  143.9659  161.7064 C.ar    1  UNL1        0.0224
     10 C         140.0205  144.4187  160.4275 C.ar    1  UNL1        0.0239
     11 C         140.8114  144.4213  159.1529 C.ar    1  UNL1        0.1189
     12 N         140.1713  144.8740  157.8741 N.ar    1  UNL1       -0.2826
     13 C         139.4500  143.9999  156.8913 C.ar    1  UNL1        0.1826
     14 N         138.9731  144.8659  155.7634 N.ar    1  UNL1       -0.2280
     15 C         139.3996  146.2755  156.0490 C.ar    1  UNL1        0.0786
     16 C         139.1324  147.4702  155.1822 C.3     1  UNL1        0.0538
     17 C         140.1401  146.2804  157.3535 C.ar    1  UNL1        0.0963
     18 C         143.8638  142.7808  157.5129 C.3     1  UNL1        0.2543
     19 O         143.0330  143.9738  157.8825 O.3     1  UNL1       -0.4551
     20 N         142.9168  141.0994  166.3324 N.pl3   1  UNL1       -0.2786
     21 H         143.6898  140.8573  166.8919 H       1  UNL1        0.1555
     22 C         141.5450  140.6155  166.6984 C.ar    1  UNL1        0.1274
     23 C         140.7683  139.5469  165.9877 C.ar    1  UNL1        0.0244
     24 C         139.4523  139.3861  166.6894 C.ar    1  UNL1        0.0773
     25 N         139.4158  140.3553  167.8337 N.ar    1  UNL1       -0.1730
     26 N         140.7091  141.1150  167.8393 N.ar    1  UNL1       -0.2402
     27 C         138.4574  138.3780  166.1957 C.3     1  UNL1        0.0474
     28 C         138.7784  137.5307  165.0004 C.3     1  UNL1        0.0067
     29 C         140.0944  137.6916  164.2987 C.3     1  UNL1        0.0052
     30 C         141.0893  138.6997  164.7923 C.3     1  UNL1        0.0305
     31 C         141.0982  142.1863  168.8145 C.3     1  UNL1        0.1065
     32 C         140.3973  143.3544  169.4425 C.3     1  UNL1        0.0245
     33 C         141.6485  143.7012  170.1936 C.3     1  UNL1        0.0040
     34 C         142.3494  142.5332  169.5657 C.3     1  UNL1        0.0245
@<TRIPOS>BOND
     1    18    19    1
     2    19     6    1
     3     6     7   ar
     4     7     8   ar
     5     8     1    1
     6     1     2   ar
     7     2     3   ar
     8     3     4   ar
     9     4    20    1
    10    20    22    1
    11    22    23   ar
    12    23    24   ar
    13    24    25   ar
    14    25    26   ar
    15    26    31    1
    16    31    32    1
    17    32    33    1
    18    33    34    1
    19    24    27    1
    20    27    28    1
    21    28    29    1
    22    29    30    1
    23     4     5   ar
    24     8     9   ar
    25     9    10   ar
    26    10    11   ar
    27    11    12    1
    28    12    13   ar
    29    13    14   ar
    30    14    15   ar
    31    15    16    1
    32    15    17   ar
    33    11     6   ar
    34    17    12   ar
    35     5     1   ar
    36    26    22   ar
    37    34    31    1
    38    30    23    1
    39    20    21    1
@<TRIPOS>MOLECULE
*****
 34 39 0 0 0
SMALL
GASTEIGER

@<TRIPOS>ATOM
      1 C         142.8963  141.7426  162.7671 C.ar    1  UNL1        0.1074
      2 C         144.2297  141.0558  162.7813 C.ar    1  UNL1        0.0588
      3 S         144.4750  140.5486  164.1715 S.2     1  UNL1       -0.0508
      4 C         143.2932  140.9219  165.0164 C.ar    1  UNL1        0.1646
      5 N         142.3175  141.6598  164.1484 N.ar    1  UNL1       -0.2224
      6 C         140.5844  144.1256  160.5930 C.ar    1  UNL1        0.2416
      7 N         141.2263  143.4710  161.7803 N.ar    1  UNL1       -0.2089
      8 C         142.2543  142.3971  161.5799 C.ar    1  UNL1        0.1026
      9 C         142.6403  141.9779  160.1924 C.ar    1  UNL1        0.0224
     10 C         141.9983  142.6325  159.0052 C.ar    1  UNL1        0.0239
     11 C         140.9704  143.7064  159.2055 C.ar    1  UNL1        0.1189
     12 N         140.3284  144.3609  158.0184 N.ar    1  UNL1       -0.2826
     13 C         139.3754  143.7095  157.0605 C.ar    1  UNL1        0.1826
     14 N         138.9847  144.7278  156.0308 N.ar    1  UNL1       -0.2280
     15 C         139.6963  146.0087  156.3522 C.ar    1  UNL1        0.0786
     16 C         139.5952  147.2910  155.5806 C.3     1  UNL1        0.0538
     17 C         140.5267  145.7818  157.5806 C.ar    1  UNL1        0.0963
     18 C         139.7517  146.2348  161.8610 C.3     1  UNL1        0.2543
     19 O         139.5564  145.1994  160.7934 O.3     1  UNL1       -0.4551
     20 N         143.1179  140.6118  166.4735 N.pl3   1  UNL1       -0.2786
     21 H         143.9054  140.5420  167.0602 H       1  UNL1        0.1555
     22 C         141.7426  140.4080  167.0368 C.ar    1  UNL1        0.1274
     23 C         140.6660  139.5475  166.4447 C.ar    1  UNL1        0.0244
     24 C         139.4606  139.6366  167.3329 C.ar    1  UNL1        0.0773
     25 N         139.7922  140.5521  168.4739 N.ar    1  UNL1       -0.1730
     26 N         141.2026  141.0288  168.2909 N.ar    1  UNL1       -0.2402
     27 C         138.2167  138.8725  166.9880 C.3     1  UNL1        0.0474
     28 C         138.1783  138.0194  165.7548 C.3     1  UNL1        0.0067
     29 C         139.3838  137.9304  164.8666 C.3     1  UNL1        0.0052
     30 C         140.6276  138.6944  165.2115 C.3     1  UNL1        0.0305
     31 C         141.9429  141.9625  169.2020 C.3     1  UNL1        0.1065
     32 C         141.5967  143.2229  169.9381 C.3     1  UNL1        0.0245
     33 C         142.9899  143.2829  170.4906 C.3     1  UNL1        0.0040
     34 C         143.3362  142.0226  169.7546 C.3     1  UNL1        0.0245
@<TRIPOS>BOND
     1    18    19    1
     2    19     6    1
     3     6     7   ar
     4     7     8   ar
     5     8     1    1
     6     1     2   ar
     7     2     3   ar
     8     3     4   ar
     9     4    20    1
    10    20    22    1
    11    22    23   ar
    12    23    24   ar
    13    24    25   ar
    14    25    26   ar
    15    26    31    1
    16    31    32    1
    17    32    33    1
    18    33    34    1
    19    24    27    1
    20    27    28    1
    21    28    29    1
    22    29    30    1
    23     4     5   ar
    24     8     9   ar
    25     9    10   ar
    26    10    11   ar
    27    11    12    1
    28    12    13   ar
    29    13    14   ar
    30    14    15   ar
    31    15    16    1
    32    15    17   ar
    33    11     6   ar
    34    17    12   ar
    35     5     1   ar
    36    26    22   ar
    37    34    31    1
    38    30    23    1
    39    20    21    1
@<TRIPOS>MOLECULE
*****
 34 39 0 0 0
SMALL
GASTEIGER

@<TRIPOS>ATOM
      1 C         141.6021  139.9963  159.8790 C.ar    1  UNL1        0.1074
      2 C         142.2969  138.7686  159.3692 C.ar    1  UNL1        0.0588
      3 S         142.6790  137.9278  160.5512 S.2     1  UNL1       -0.0508
      4 C         142.2203  138.6359  161.7914 C.ar    1  UNL1        0.1646
      5 N         141.5548  139.9144  161.3759 N.ar    1  UNL1       -0.2224
      6 C         140.0971  143.5189  158.8412 C.ar    1  UNL1        0.2416
      7 N         140.6479  142.4047  159.6811 N.ar    1  UNL1       -0.2089
      8 C         141.0514  141.1104  159.0391 C.ar    1  UNL1        0.1026
      9 C         140.9041  140.9304  157.5572 C.ar    1  UNL1        0.0224
     10 C         140.3533  142.0446  156.7174 C.ar    1  UNL1        0.0239
     11 C         139.9498  143.3388  157.3594 C.ar    1  UNL1        0.1189
     12 N         139.3991  144.4529  156.5196 N.ar    1  UNL1       -0.2826
     13 C         138.1400  144.4041  155.7056 C.ar    1  UNL1        0.1826
     14 N         137.9735  145.7324  155.0292 N.ar    1  UNL1       -0.2280
     15 C         139.1296  146.6024  155.4251 C.ar    1  UNL1        0.0786
     16 C         139.3635  148.0151  154.9783 C.3     1  UNL1        0.0538
     17 C         140.0107  145.8115  156.3462 C.ar    1  UNL1        0.0963
     18 C         140.4817  145.3547  160.6389 C.3     1  UNL1        0.2543
     19 O         139.6937  144.8131  159.4832 O.3     1  UNL1       -0.4551
     20 N         142.3963  138.1508  163.1999 N.pl3   1  UNL1       -0.2786
     21 H         142.8515  137.2951  163.3726 H       1  UNL1        0.1555
     22 C         141.8786  138.9694  164.3453 C.ar    1  UNL1        0.1274
     23 C         140.5906  138.7425  165.0799 C.ar    1  UNL1        0.0244
     24 C         140.4739  139.7914  166.1458 C.ar    1  UNL1        0.0773
     25 N         141.6898  140.6666  166.0699 N.ar    1  UNL1       -0.1730
     26 N         142.5579  140.1586  164.9571 N.ar    1  UNL1       -0.2402
     27 C         139.2756  139.8142  167.0477 C.3     1  UNL1        0.0474
     28 C         138.1940  138.7879  166.8838 C.3     1  UNL1        0.0067
     29 C         138.3107  137.7390  165.8180 C.3     1  UNL1        0.0052
     30 C         139.5090  137.7162  164.9160 C.3     1  UNL1        0.0305
     31 C         143.8743  140.7379  164.5310 C.3     1  UNL1        0.1065
     32 C         144.4734  142.1131  164.5178 C.3     1  UNL1        0.0245
     33 C         145.7358  141.5573  163.9284 C.3     1  UNL1        0.0040
     34 C         145.1368  140.1822  163.9416 C.3     1  UNL1        0.0245
@<TRIPOS>BOND
     1    18    19    1
     2    19     6    1
     3     6     7   ar
     4     7     8   ar
     5     8     1    1
     6     1     2   ar
     7     2     3   ar
     8     3     4   ar
     9     4    20    1
    10    20    22    1
    11    22    23   ar
    12    23    24   ar
    13    24    25   ar
    14    25    26   ar
    15    26    31    1
    16    31    32    1
    17    32    33    1
    18    33    34    1
    19    24    27    1
    20    27    28    1
    21    28    29    1
    22    29    30    1
    23     4     5   ar
    24     8     9   ar
    25     9    10   ar
    26    10    11   ar
    27    11    12    1
    28    12    13   ar
    29    13    14   ar
    30    14    15   ar
    31    15    16    1
    32    15    17   ar
    33    11     6   ar
    34    17    12   ar
    35     5     1   ar
    36    26    22   ar
    37    34    31    1
    38    30    23    1
    39    20    21    1
@<TRIPOS>MOLECULE
*****
 34 39 0 0 0
SMALL
GASTEIGER

@<TRIPOS>ATOM
      1 C         139.6479  143.6482  162.9666 C.ar    1  UNL1        0.1074
      2 C         139.3757  144.6207  164.0757 C.ar    1  UNL1        0.0588
      3 S         139.2338  143.8424  165.3501 S.2     1  UNL1       -0.0508
      4 C         139.4182  142.3890  165.0287 C.ar    1  UNL1        0.1646
      5 N         139.6741  142.2689  163.5555 N.ar    1  UNL1       -0.2224
      6 C         139.3538  143.5643  159.0097 C.ar    1  UNL1        0.2416
      7 N         139.1446  143.2182  160.4542 N.ar    1  UNL1       -0.2089
      8 C         139.8570  143.9942  161.5222 C.ar    1  UNL1        0.1026
      9 C         140.7786  145.1162  161.1455 C.ar    1  UNL1        0.0224
     10 C         140.9877  145.4622  159.7010 C.ar    1  UNL1        0.0239
     11 C         140.2753  144.6862  158.6331 C.ar    1  UNL1        0.1189
     12 N         140.4845  145.0323  157.1887 N.ar    1  UNL1       -0.2826
     13 C         141.1137  144.1487  156.1525 C.ar    1  UNL1        0.1826
     14 N         141.1192  144.8929  154.8502 N.ar    1  UNL1       -0.2280
     15 C         140.4935  146.2365  155.0814 C.ar    1  UNL1        0.0786
     16 C         140.2949  147.3061  154.0487 C.3     1  UNL1        0.0538
     17 C         140.1012  146.3225  156.5267 C.ar    1  UNL1        0.0963
     18 C         138.1477  141.4007  158.2261 C.3     1  UNL1        0.2543
     19 O         138.6414  142.7883  157.9419 O.3     1  UNL1       -0.4551
     20 N         139.3574  141.2546  166.0083 N.pl3   1  UNL1       -0.2786
     21 H         138.5158  140.7604  166.1376 H       1  UNL1        0.1555
     22 C         140.5789  140.8733  166.7910 C.ar    1  UNL1        0.1274
     23 C         141.1304  141.6070  167.9774 C.ar    1  UNL1        0.0244
     24 C         142.3557  140.8785  168.4444 C.ar    1  UNL1        0.0773
     25 N         142.5614  139.6946  167.5465 N.ar    1  UNL1       -0.1730
     26 N         141.4632  139.6913  166.5247 N.ar    1  UNL1       -0.2402
     27 C         143.1257  141.3873  169.6267 C.3     1  UNL1        0.0474
     28 C         142.6705  142.6246  170.3422 C.3     1  UNL1        0.0067
     29 C         141.4453  143.3530  169.8752 C.3     1  UNL1        0.0052
     30 C         140.6752  142.8442  168.6928 C.3     1  UNL1        0.0305
     31 C         141.2814  138.6832  165.4290 C.3     1  UNL1        0.1065
     32 C         140.1245  137.8879  164.9007 C.3     1  UNL1        0.0245
     33 C         141.0243  137.2575  163.8794 C.3     1  UNL1        0.0040
     34 C         142.1812  138.0528  164.4076 C.3     1  UNL1        0.0245
@<TRIPOS>BOND
     1    18    19    1
     2    19     6    1
     3     6     7   ar
     4     7     8   ar
     5     8     1    1
     6     1     2   ar
     7     2     3   ar
     8     3     4   ar
     9     4    20    1
    10    20    22    1
    11    22    23   ar
    12    23    24   ar
    13    24    25   ar
    14    25    26   ar
    15    26    31    1
    16    31    32    1
    17    32    33    1
    18    33    34    1
    19    24    27    1
    20    27    28    1
    21    28    29    1
    22    29    30    1
    23     4     5   ar
    24     8     9   ar
    25     9    10   ar
    26    10    11   ar
    27    11    12    1
    28    12    13   ar
    29    13    14   ar
    30    14    15   ar
    31    15    16    1
    32    15    17   ar
    33    11     6   ar
    34    17    12   ar
    35     5     1   ar
    36    26    22   ar
    37    34    31    1
    38    30    23    1
    39    20    21    1
@<TRIPOS>MOLECULE
*****
 34 39 0 0 0
SMALL
GASTEIGER

@<TRIPOS>ATOM
      1 C         142.3317  142.4332  163.0779 C.ar    1  UNL1        0.1074
      2 C         143.4523  143.0080  163.8927 C.ar    1  UNL1        0.0588
      3 S         143.6670  142.1162  165.0796 S.2     1  UNL1       -0.0508
      4 C         142.6792  140.9904  164.9983 C.ar    1  UNL1        0.1646
      5 N         141.8539  141.1863  163.7612 N.ar    1  UNL1       -0.2224
      6 C         142.1583  143.8619  159.3794 C.ar    1  UNL1        0.2416
      7 N         142.7052  143.2901  160.6538 N.ar    1  UNL1       -0.2089
      8 C         141.7849  143.0050  161.8036 C.ar    1  UNL1        0.1026
      9 C         140.3178  143.2917  161.6789 C.ar    1  UNL1        0.0224
     10 C         139.7710  143.8635  160.4044 C.ar    1  UNL1        0.0239
     11 C         140.6913  144.1486  159.2547 C.ar    1  UNL1        0.1189
     12 N         140.1445  144.7204  157.9804 N.ar    1  UNL1       -0.2826
     13 C         139.4664  143.9487  156.8872 C.ar    1  UNL1        0.1826
     14 N         139.0826  144.9156  155.8067 N.ar    1  UNL1       -0.2280
     15 C         139.5235  146.2850  156.2319 C.ar    1  UNL1        0.0786
     16 C         139.3402  147.5524  155.4508 C.3     1  UNL1        0.0538
     17 C         140.1798  146.1642  157.5753 C.ar    1  UNL1        0.0963
     18 C         143.5646  143.0243  157.3618 C.3     1  UNL1        0.2543
     19 O         143.0786  144.1470  158.2297 O.3     1  UNL1       -0.4551
     20 N         142.5408  139.8660  165.9816 N.pl3   1  UNL1       -0.2786
     21 H         143.2027  139.1373  165.9924 H       1  UNL1        0.1555
     22 C         141.3940  139.8520  166.9484 C.ar    1  UNL1        0.1274
     23 C         141.4510  140.2630  168.3899 C.ar    1  UNL1        0.0244
     24 C         140.0812  140.0895  168.9758 C.ar    1  UNL1        0.0773
     25 N         139.1776  139.5712  167.8965 N.ar    1  UNL1       -0.1730
     26 N         139.9890  139.4245  166.6434 N.ar    1  UNL1       -0.2402
     27 C         139.8335  140.4258  170.4165 C.3     1  UNL1        0.0474
     28 C         140.9558  140.9355  171.2712 C.3     1  UNL1        0.0067
     29 C         142.3257  141.1090  170.6853 C.3     1  UNL1        0.0052
     30 C         142.5733  140.7727  169.2446 C.3     1  UNL1        0.0305
     31 C         139.4840  138.9360  165.3182 C.3     1  UNL1        0.1065
     32 C         139.7517  137.7368  164.4576 C.3     1  UNL1        0.0245
     33 C         138.7698  138.2451  163.4440 C.3     1  UNL1        0.0040
     34 C         138.5021  139.4442  164.3044 C.3     1  UNL1        0.0245
@<TRIPOS>BOND
     1    18    19    1
     2    19     6    1
     3     6     7   ar
     4     7     8   ar
     5     8     1    1
     6     1     2   ar
     7     2     3   ar
     8     3     4   ar
     9     4    20    1
    10    20    22    1
    11    22    23   ar
    12    23    24   ar
    13    24    25   ar
    14    25    26   ar
    15    26    31    1
    16    31    32    1
    17    32    33    1
    18    33    34    1
    19    24    27    1
    20    27    28    1
    21    28    29    1
    22    29    30    1
    23     4     5   ar
    24     8     9   ar
    25     9    10   ar
    26    10    11   ar
    27    11    12    1
    28    12    13   ar
    29    13    14   ar
    30    14    15   ar
    31    15    16    1
    32    15    17   ar
    33    11     6   ar
    34    17    12   ar
    35     5     1   ar
    36    26    22   ar
    37    34    31    1
    38    30    23    1
    39    20    21    1
@<TRIPOS>MOLECULE
*****
 34 39 0 0 0
SMALL
GASTEIGER

@<TRIPOS>ATOM
      1 C         142.3845  137.8067  158.2696 C.ar    1  UNL1        0.1074
      2 C         142.5854  138.7447  157.1164 C.ar    1  UNL1        0.0588
      3 S         143.2564  137.9837  156.0115 S.2     1  UNL1       -0.0508
      4 C         143.4702  136.5755  156.4819 C.ar    1  UNL1        0.1646
      5 N         142.9313  136.4662  157.8775 N.ar    1  UNL1       -0.2224
      6 C         139.7332  139.0808  160.9337 C.ar    1  UNL1        0.2416
      7 N         140.3692  138.7383  159.6191 N.ar    1  UNL1       -0.2089
      8 C         141.7484  138.1493  159.5841 C.ar    1  UNL1        0.1026
      9 C         142.4914  137.9029  160.8637 C.ar    1  UNL1        0.0224
     10 C         141.8553  138.2455  162.1783 C.ar    1  UNL1        0.0239
     11 C         140.4762  138.8345  162.2132 C.ar    1  UNL1        0.1189
     12 N         139.8401  139.1770  163.5278 N.ar    1  UNL1       -0.2826
     13 C         139.8920  140.5113  164.2113 C.ar    1  UNL1        0.1826
     14 N         139.1244  140.4044  165.4955 N.ar    1  UNL1       -0.2280
     15 C         138.5980  139.0040  165.6058 C.ar    1  UNL1        0.0786
     16 C         137.7741  138.4582  166.7341 C.3     1  UNL1        0.0538
     17 C         139.0404  138.2455  164.3896 C.ar    1  UNL1        0.0963
     18 C         138.1723  141.1577  160.9124 C.3     1  UNL1        0.2543
     19 O         138.3541  139.6698  160.9687 O.3     1  UNL1       -0.4551
     20 N         144.1105  135.4706  155.6949 N.pl3   1  UNL1       -0.2786
     21 H         144.9625  135.6288  155.2276 H       1  UNL1        0.1555
     22 C         143.4527  134.1246  155.6199 C.ar    1  UNL1        0.1274
     23 C         143.8374  132.9100  156.4115 C.ar    1  UNL1        0.0244
     24 C         142.9172  131.7916  156.0210 C.ar    1  UNL1        0.0773
     25 N         141.9638  132.3151  154.9881 N.ar    1  UNL1       -0.1730
     26 N         142.2947  133.7570  154.7402 N.ar    1  UNL1       -0.2402
     27 C         143.0663  130.4411  156.6565 C.3     1  UNL1        0.0474
     28 C         144.1356  130.2089  157.6824 C.3     1  UNL1        0.0067
     29 C         145.0558  131.3273  158.0729 C.3     1  UNL1        0.0052
     30 C         144.9067  132.6778  157.4375 C.3     1  UNL1        0.0305
     31 C         141.5912  134.6708  153.7810 C.3     1  UNL1        0.1065
     32 C         141.4534  134.7396  152.2888 C.3     1  UNL1        0.0245
     33 C         140.5964  135.9631  152.4245 C.3     1  UNL1        0.0040
     34 C         140.7341  135.8943  153.9165 C.3     1  UNL1        0.0245
@<TRIPOS>BOND
     1    18    19    1
     2    19     6    1
     3     6     7   ar
     4     7     8   ar
     5     8     1    1
     6     1     2   ar
     7     2     3   ar
     8     3     4   ar
     9     4    20    1
    10    20    22    1
    11    22    23   ar
    12    23    24   ar
    13    24    25   ar
    14    25    26   ar
    15    26    31    1
    16    31    32    1
    17    32    33    1
    18    33    34    1
    19    24    27    1
    20    27    28    1
    21    28    29    1
    22    29    30    1
    23     4     5   ar
    24     8     9   ar
    25     9    10   ar
    26    10    11   ar
    27    11    12    1
    28    12    13   ar
    29    13    14   ar
    30    14    15   ar
    31    15    16    1
    32    15    17   ar
    33    11     6   ar
    34    17    12   ar
    35     5     1   ar
    36    26    22   ar
    37    34    31    1
    38    30    23    1
    39    20    21    1
@<TRIPOS>MOLECULE
*****
 34 39 0 0 0
SMALL
GASTEIGER

@<TRIPOS>ATOM
      1 C         139.9617  143.4296  162.0185 C.ar    1  UNL1        0.1074
      2 C         138.7441  143.4907  162.8925 C.ar    1  UNL1        0.0588
      3 S         139.0751  142.8257  164.1956 S.2     1  UNL1       -0.0508
      4 C         140.4972  142.3536  164.1270 C.ar    1  UNL1        0.1646
      5 N         141.0452  142.7268  162.7815 N.ar    1  UNL1       -0.2224
      6 C         139.3794  143.9201  158.1236 C.ar    1  UNL1        0.2416
      7 N         139.2653  143.3742  159.5161 N.ar    1  UNL1       -0.2089
      8 C         140.0757  143.9754  160.6261 C.ar    1  UNL1        0.1026
      9 C         141.0002  145.1224  160.3434 C.ar    1  UNL1        0.0224
     10 C         141.1142  145.6682  158.9509 C.ar    1  UNL1        0.0239
     11 C         140.3038  145.0671  157.8410 C.ar    1  UNL1        0.1189
     12 N         140.4179  145.6129  156.4485 N.ar    1  UNL1       -0.2826
     13 C         139.5123  146.6331  155.8244 C.ar    1  UNL1        0.1826
     14 N         139.9922  146.8851  154.4259 N.ar    1  UNL1       -0.2280
     15 C         141.1944  146.0206  154.1854 C.ar    1  UNL1        0.0786
     16 C         141.9932  145.9541  152.9176 C.3     1  UNL1        0.0538
     17 C         141.4574  145.2344  155.4356 C.ar    1  UNL1        0.0963
     18 C         139.1432  142.2115  156.1807 C.3     1  UNL1        0.2543
     19 O         138.5691  143.3189  157.0137 O.3     1  UNL1       -0.4551
     20 N         141.2409  141.6345  165.2133 N.pl3   1  UNL1       -0.2786
     21 H         142.2234  141.5790  165.1837 H       1  UNL1        0.1555
     22 C         140.4876  141.0000  166.3447 C.ar    1  UNL1        0.1274
     23 C         140.3674  141.5427  167.7379 C.ar    1  UNL1        0.0244
     24 C         139.5278  140.5895  168.5357 C.ar    1  UNL1        0.0773
     25 N         139.1292  139.4578  167.6356 N.ar    1  UNL1       -0.1730
     26 N         139.7224  139.7114  166.2815 N.ar    1  UNL1       -0.2402
     27 C         139.2347  140.8753  169.9788 C.3     1  UNL1        0.0474
     28 C         139.7812  142.1142  170.6240 C.3     1  UNL1        0.0067
     29 C         140.6208  143.0674  169.8261 C.3     1  UNL1        0.0052
     30 C         140.9139  142.7816  168.3831 C.3     1  UNL1        0.0305
     31 C         139.5761  138.8311  165.0758 C.3     1  UNL1        0.1065
     32 C         140.0930  137.4796  164.6802 C.3     1  UNL1        0.0245
     33 C         139.3691  137.5862  163.3707 C.3     1  UNL1        0.0040
     34 C         138.8522  138.9376  163.7663 C.3     1  UNL1        0.0245
@<TRIPOS>BOND
     1    18    19    1
     2    19     6    1
     3     6     7   ar
     4     7     8   ar
     5     8     1    1
     6     1     2   ar
     7     2     3   ar
     8     3     4   ar
     9     4    20    1
    10    20    22    1
    11    22    23   ar
    12    23    24   ar
    13    24    25   ar
    14    25    26   ar
    15    26    31    1
    16    31    32    1
    17    32    33    1
    18    33    34    1
    19    24    27    1
    20    27    28    1
    21    28    29    1
    22    29    30    1
    23     4     5   ar
    24     8     9   ar
    25     9    10   ar
    26    10    11   ar
    27    11    12    1
    28    12    13   ar
    29    13    14   ar
    30    14    15   ar
    31    15    16    1
    32    15    17   ar
    33    11     6   ar
    34    17    12   ar
    35     5     1   ar
    36    26    22   ar
    37    34    31    1
    38    30    23    1
    39    20    21    1
