@<TRIPOS>MOLECULE
*****
 90 95 0 0 0
SMALL
GASTEIGER

@<TRIPOS>ATOM
      1 C         143.3370  138.8256  155.9139 C.3     1  UNL1        0.1286
      2 C         143.4102  139.9404  154.9130 C.3     1  UNL1        0.0574
      3 C         144.1071  139.2479  153.7796 C.3     1  UNL1        0.0051
      4 C         143.2272  141.3098  154.3286 C.3     1  UNL1        0.1444
      5 C         142.8129  142.7486  154.2397 C.3     1  UNL1        0.1134
      6 C         143.4930  142.2582  152.9960 C.3     1  UNL1        0.0318
      7 O         142.9287  143.8052  153.1813 O.3     1  UNL1       -0.3844
      8 C         142.2230  144.0627  154.6584 C.3     1  UNL1        0.0310
      9 C         141.5374  145.0746  155.5279 C.3     1  UNL1        0.0223
     10 C         141.5461  146.2689  154.6204 C.3     1  UNL1        0.0018
     11 C         140.8486  145.6476  156.7309 C.3     1  UNL1        0.0935
     12 N         140.2497  145.7042  158.1049 N.am    1  UNL1       -0.2777
     13 C         139.7851  147.1299  158.1445 C.3     1  UNL1        0.1148
     14 C         139.8214  145.2370  159.4644 C.2     1  UNL1        0.2274
     15 O         139.1994  146.4910  160.0036 O.2     1  UNL1       -0.2748
     16 C         139.6217  144.3088  160.6257 C.3     1  UNL1        0.1051
     17 C         139.6776  143.0452  161.4321 C.3     1  UNL1        0.0850
     18 N         139.9814  141.6168  161.7746 N.am    1  UNL1       -0.3038
     19 C         140.4922  140.2165  161.6068 C.2     1  UNL1        0.2403
     20 O         140.1167  139.6255  162.9334 O.2     1  UNL1       -0.2733
     21 C         141.1409  139.0334  160.9517 C.3     1  UNL1        0.1485
     22 N         141.8400  138.2272  159.8974 N.am    1  UNL1       -0.2983
     23 C         142.4951  137.9070  158.5866 C.2     1  UNL1        0.2247
     24 O         142.8557  136.4671  158.8032 O.2     1  UNL1       -0.2750
     25 C         143.0176  138.1158  157.1961 C.3     1  UNL1        0.1037
     26 C         143.3680  136.9529  157.2313 C.3     1  UNL1        0.0121
     27 H         143.3740  143.4356  152.4029 H       1  UNL1        0.2103
     28 H         139.6117  141.5667  162.6857 H       1  UNL1        0.1494
     29 H         141.9187  137.3595  160.3558 H       1  UNL1        0.1498
     30 C         141.0039  138.0075  162.0375 C.3     1  UNL1        0.0269
     31 C         139.6581  137.4256  162.3539 C.3     1  UNL1        0.0022
     32 C         142.2127  137.5636  162.8067 C.3     1  UNL1        0.0022
     33 O         144.0070  137.7234  155.1483 O.3     1  UNL1       -0.3324
     34 C         142.7022  134.0277  154.5243 C.3     1  UNL1        0.1246
     35 C         142.2255  132.6228  154.3031 C.3     1  UNL1        0.0324
     36 C         143.5125  135.1747  155.0516 C.3     1  UNL1        0.0910
     37 C         143.1968  136.5764  154.6210 C.3     1  UNL1        0.2375
     38 O         142.0709  136.8312  153.6632 O.3     1  UNL1       -0.3304
     39 C         141.2607  135.6843  153.1360 C.3     1  UNL1        0.1468
     40 C         140.1348  135.9390  152.1782 C.3     1  UNL1        0.0348
     41 C         141.5763  134.2825  153.5665 C.3     1  UNL1        0.1623
     42 O         140.7661  133.1355  153.0393 O.3     1  UNL1       -0.3796
     43 H         141.0989  132.3052  153.4144 H       1  UNL1        0.2105
     44 C         143.4488  133.2546  156.8897 C.3     1  UNL1        0.1740
     45 O         143.6626  133.2849  155.4053 O.3     1  UNL1       -0.3532
     46 O         143.8569  141.1205  152.9805 O.3     1  UNL1       -0.3287
     47 C         145.1600  141.7912  152.6605 C.3     1  UNL1        0.2643
     48 O         145.2121  143.2787  152.4750 O.3     1  UNL1       -0.3311
     49 C         146.5151  143.9494  152.1551 C.3     1  UNL1        0.1194
     50 C         146.5673  145.4370  151.9696 C.3     1  UNL1        0.0322
     51 C         147.7660  143.1325  152.0205 C.3     1  UNL1        0.0482
     52 C         147.7138  141.6449  152.2060 C.3     1  UNL1        0.0921
     53 C         146.4107  140.9742  152.5259 C.3     1  UNL1        0.1815
     54 O         146.3586  139.4867  152.7114 O.3     1  UNL1       -0.3783
     55 H         147.2463  139.1145  152.5914 H       1  UNL1        0.2106
     56 N         148.9646  140.8280  152.0714 N.3     1  UNL1       -0.2692
     57 C         150.3028  141.5050  152.0411 C.3     1  UNL1        0.0897
     58 C         148.8772  139.3343  151.9672 C.3     1  UNL1        0.0897
     59 C         139.0027  143.4938  162.6944 C.3     1  UNL1        0.0464
     60 C         139.3870  142.8813  164.0087 C.ar    1  UNL1       -0.0204
     61 C         140.5913  143.3851  164.7475 C.ar    1  UNL1       -0.0029
     62 C         140.9756  142.7726  166.0616 C.ar    1  UNL1        0.0143
     63 C         140.1555  141.6562  166.6371 C.ar    1  UNL1        0.0503
     64 C         138.9512  141.1524  165.8983 C.ar    1  UNL1        0.0143
     65 C         138.5669  141.7649  164.5841 C.ar    1  UNL1       -0.0029
     66 N         140.5398  141.0437  167.9514 N.am    1  UNL1       -0.2826
     67 C         141.7414  140.1503  168.0397 C.2     1  UNL1        0.2444
     68 O         142.5588  139.8694  166.8137 O.2     1  UNL1       -0.2730
     69 H         140.0033  141.2281  168.7560 H       1  UNL1        0.1549
     70 C         142.1257  139.5378  169.3539 C.3     1  UNL1        0.1544
     71 N         142.7700  138.1837  169.3904 N.am    1  UNL1       -0.2821
     72 C         143.6445  137.8002  170.5472 C.2     1  UNL1        0.3048
     73 O         143.8748  138.7708  171.6674 O.2     1  UNL1       -0.2525
     74 N         144.2888  136.4461  170.5837 N.am    1  UNL1       -0.2683
     75 H         142.6189  137.5467  168.6552 H       1  UNL1        0.1514
     76 H         144.1377  135.8091  169.8484 H       1  UNL1        0.1564
     77 C         145.1634  136.0626  171.7404 C.ar    1  UNL1        0.0516
     78 C         146.0009  137.1021  172.4244 C.ar    1  UNL1        0.0147
     79 C         146.8754  136.7186  173.5811 C.ar    1  UNL1        0.0013
     80 C         146.9124  135.2955  174.0539 C.ar    1  UNL1        0.0001
     81 C         146.0749  134.2560  173.3700 C.ar    1  UNL1        0.0013
     82 C         145.2004  134.6395  172.2132 C.ar    1  UNL1        0.0147
     83 C         141.8657  140.2794  170.6315 C.3     1  UNL1        0.0562
     84 C         141.4142  141.7092  170.5903 C.ar    1  UNL1       -0.0094
     85 C         139.9785  142.0505  170.8588 C.ar    1  UNL1       -0.0034
     86 C         139.5270  143.4804  170.8175 C.ar    1  UNL1       -0.0003
     87 C         140.5114  144.5690  170.5078 C.ar    1  UNL1        0.0008
     88 C         141.9472  144.2278  170.2394 C.ar    1  UNL1        0.0111
     89 C         142.3986  142.7979  170.2806 C.ar    1  UNL1        0.0538
     90 CL        143.8344  142.4566  170.0121 Cl      1  UNL1       -0.0826
@<TRIPOS>BOND
     1    44    45    1
     2    45    34    1
     3    34    35    1
     4    34    36    1
     5    36    37    1
     6    37    33    1
     7     1    33    1
     8     1     2    1
     9     2     3    1
    10     2     4    1
    11     4    46    1
    12    47    46    1
    13    47    48    1
    14    48    49    1
    15    49    50    1
    16    49    51    1
    17    51    52    1
    18    52    56    1
    19    56    57    1
    20    56    58    1
    21    52    53    1
    22    53    54    1
    23     4     5    1
    24     5     6    1
    25     5     7    1
    26     5     8    1
    27     8     9    1
    28     9    10    1
    29     9    11    1
    30    11    12    1
    31    12    13    1
    32    12    14   am
    33    14    15    2
    34    14    16    1
    35    16    17    1
    36    17    59    1
    37    59    60    1
    38    60    61   ar
    39    61    62   ar
    40    62    63   ar
    41    63    66    1
    42    66    67   am
    43    67    68    2
    44    67    70    1
    45    70    83    1
    46    83    84    1
    47    84    85   ar
    48    85    86   ar
    49    86    87   ar
    50    87    88   ar
    51    88    89   ar
    52    89    90    1
    53    70    71    1
    54    71    72   am
    55    72    73    2
    56    72    74   am
    57    74    77    1
    58    77    78   ar
    59    78    79   ar
    60    79    80   ar
    61    80    81   ar
    62    81    82   ar
    63    63    64   ar
    64    64    65   ar
    65    17    18    1
    66    18    19   am
    67    19    20    2
    68    19    21    1
    69    21    30    1
    70    30    31    1
    71    30    32    1
    72    21    22    1
    73    22    23   am
    74    23    24    2
    75    23    25    1
    76    25    26    1
    77    37    38    1
    78    38    39    1
    79    39    40    1
    80    39    41    1
    81    41    42    1
    82    41    34    1
    83    25     1    1
    84    53    47    1
    85    65    60   ar
    86    89    84   ar
    87    82    77   ar
    88    54    55    1
    89     7    27    1
    90    66    69    1
    91    71    75    1
    92    74    76    1
    93    18    28    1
    94    22    29    1
    95    42    43    1
@<TRIPOS>MOLECULE
*****
 90 95 0 0 0
SMALL
GASTEIGER

@<TRIPOS>ATOM
      1 C         138.7864  139.6839  155.6136 C.3     1  UNL1        0.1286
      2 C         139.6899  139.5007  154.4303 C.3     1  UNL1        0.0574
      3 C         138.7364  138.8879  153.4477 C.3     1  UNL1        0.0051
      4 C         140.9438  139.5427  153.6080 C.3     1  UNL1        0.1444
      5 C         142.3787  139.8042  153.2579 C.3     1  UNL1        0.1134
      6 C         141.6048  139.1877  152.1306 C.3     1  UNL1        0.0318
      7 O         143.2104  139.5851  152.0290 O.3     1  UNL1       -0.3844
      8 C         143.8009  140.2499  153.4274 C.3     1  UNL1        0.0310
      9 C         145.0183  140.8196  154.0932 C.3     1  UNL1        0.0223
     10 C         146.0230  140.6916  152.9868 C.3     1  UNL1        0.0018
     11 C         145.8664  141.4364  155.1657 C.3     1  UNL1        0.0935
     12 N         146.2308  142.0169  156.4999 N.am    1  UNL1       -0.2777
     13 C         147.6811  142.3289  156.2780 C.3     1  UNL1        0.1148
     14 C         146.0622  142.4828  157.9157 C.2     1  UNL1        0.2274
     15 O         147.4506  142.9660  158.2140 O.2     1  UNL1       -0.2748
     16 C         145.3834  142.7711  159.2218 C.3     1  UNL1        0.1051
     17 C         144.2860  142.8429  160.2420 C.3     1  UNL1        0.0850
     18 N         142.9183  142.6886  160.8383 N.am    1  UNL1       -0.3038
     19 C         141.4650  142.3288  160.9302 C.2     1  UNL1        0.2403
     20 O         141.1639  142.7554  162.3364 O.2     1  UNL1       -0.2733
     21 C         140.1224  141.8123  160.5054 C.3     1  UNL1        0.1485
     22 N         139.0717  141.2088  159.6211 N.am    1  UNL1       -0.2983
     23 C         138.4550  140.5998  158.3969 C.2     1  UNL1        0.2247
     24 O         137.0475  140.3909  158.8721 O.2     1  UNL1       -0.2750
     25 C         138.3553  140.0675  156.9981 C.3     1  UNL1        0.1037
     26 C         137.1874  139.8410  157.2451 C.3     1  UNL1        0.0121
     27 H         142.6627  139.1863  151.3348 H       1  UNL1        0.2103
     28 H         143.0712  143.0553  161.7390 H       1  UNL1        0.1494
     29 H         138.2968  141.2186  160.2283 H       1  UNL1        0.1498
     30 C         139.3278  142.0491  161.7555 C.3     1  UNL1        0.0269
     31 C         138.6015  143.3473  161.9478 C.3     1  UNL1        0.0022
     32 C         139.2596  140.9876  162.8131 C.3     1  UNL1        0.0022
     33 O         137.5009  139.1384  155.0658 O.3     1  UNL1       -0.3324
     34 C         133.9936  140.9085  154.5039 C.3     1  UNL1        0.1246
     35 C         132.6583  141.5630  154.3072 C.3     1  UNL1        0.0324
     36 C         135.0408  139.9731  155.0316 C.3     1  UNL1        0.0910
     37 C         136.4537  140.0739  154.5382 C.3     1  UNL1        0.2375
     38 O         136.8194  141.1100  153.5171 O.3     1  UNL1       -0.3304
     39 C         135.7722  142.0454  152.9895 C.3     1  UNL1        0.1468
     40 C         136.1380  143.0816  151.9684 C.3     1  UNL1        0.0348
     41 C         134.3593  141.9447  153.4829 C.3     1  UNL1        0.1623
     42 O         133.3121  142.8801  152.9552 O.3     1  UNL1       -0.3796
     43 H         132.4603  142.6815  153.3746 H       1  UNL1        0.2105
     44 C         133.5610  140.0018  156.8999 C.3     1  UNL1        0.1740
     45 O         133.1641  140.0996  155.4567 O.3     1  UNL1       -0.3532
     46 O         140.4511  138.9454  152.3234 O.3     1  UNL1       -0.3287
     47 C         139.9023  137.5494  152.3072 C.3     1  UNL1        0.2643
     48 O         138.4281  137.3248  152.1458 O.3     1  UNL1       -0.3311
     49 C         137.8794  135.9289  152.1296 C.3     1  UNL1        0.1194
     50 C         136.4051  135.7044  151.9681 C.3     1  UNL1        0.0322
     51 C         138.8049  134.7575  152.2750 C.3     1  UNL1        0.0482
     52 C         140.2792  134.9820  152.4364 C.3     1  UNL1        0.0921
     53 C         140.8279  136.3780  152.4526 C.3     1  UNL1        0.1815
     54 O         142.3022  136.6026  152.6140 O.3     1  UNL1       -0.3783
     55 H         142.7527  135.7473  152.6943 H       1  UNL1        0.2106
     56 N         141.2048  133.8107  152.5818 N.3     1  UNL1       -0.2692
     57 C         142.4895  133.9598  153.3417 C.3     1  UNL1        0.0897
     58 C         140.8459  132.4903  151.9673 C.3     1  UNL1        0.0897
     59 C         145.0216  143.4585  161.3952 C.3     1  UNL1        0.0464
     60 C         144.6194  143.1300  162.8025 C.ar    1  UNL1       -0.0204
     61 C         144.1491  144.2182  163.7215 C.ar    1  UNL1       -0.0029
     62 C         143.7469  143.8898  165.1288 C.ar    1  UNL1        0.0143
     63 C         143.8151  142.4730  165.6170 C.ar    1  UNL1        0.0503
     64 C         144.2854  141.3849  164.6980 C.ar    1  UNL1        0.0143
     65 C         144.6876  141.7133  163.2908 C.ar    1  UNL1       -0.0029
     66 N         143.4129  142.1446  167.0243 N.am    1  UNL1       -0.2826
     67 C         142.0063  142.3962  167.4805 C.2     1  UNL1        0.2444
     68 O         141.0018  142.9763  166.5293 O.2     1  UNL1       -0.2730
     69 H         144.0721  141.7639  167.6485 H       1  UNL1        0.1549
     70 C         141.6041  142.0678  168.8877 C.3     1  UNL1        0.1544
     71 N         141.8806  143.0427  169.9937 N.am    1  UNL1       -0.2821
     72 C         143.2943  143.4175  170.3271 C.2     1  UNL1        0.3048
     73 O         144.4314  142.8174  169.5546 O.2     1  UNL1       -0.2525
     74 N         143.5708  144.3924  171.4331 N.am    1  UNL1       -0.2683
     75 H         141.1343  143.4366  170.5007 H       1  UNL1        0.1514
     76 H         142.8244  144.7863  171.9401 H       1  UNL1        0.1564
     77 C         144.9844  144.7672  171.7665 C.ar    1  UNL1        0.0516
     78 C         146.1190  144.2042  170.9630 C.ar    1  UNL1        0.0147
     79 C         147.5326  144.5790  171.2965 C.ar    1  UNL1        0.0013
     80 C         147.8116  145.5168  172.4334 C.ar    1  UNL1        0.0001
     81 C         146.6770  146.0798  173.2369 C.ar    1  UNL1        0.0013
     82 C         145.2634  145.7050  172.9035 C.ar    1  UNL1        0.0147
     83 C         140.9255  140.7645  169.1890 C.3     1  UNL1        0.0562
     84 C         140.1687  140.0462  168.1114 C.ar    1  UNL1       -0.0094
     85 C         140.8359  139.7392  166.8036 C.ar    1  UNL1       -0.0034
     86 C         140.0791  139.0208  165.7259 C.ar    1  UNL1       -0.0003
     87 C         138.6551  138.6096  165.9561 C.ar    1  UNL1        0.0008
     88 C         137.9878  138.9167  167.2640 C.ar    1  UNL1        0.0111
     89 C         138.7446  139.6350  168.3416 C.ar    1  UNL1        0.0538
     90 CL        138.0774  139.9421  169.6495 Cl      1  UNL1       -0.0826
@<TRIPOS>BOND
     1    44    45    1
     2    45    34    1
     3    34    35    1
     4    34    36    1
     5    36    37    1
     6    37    33    1
     7     1    33    1
     8     1     2    1
     9     2     3    1
    10     2     4    1
    11     4    46    1
    12    47    46    1
    13    47    48    1
    14    48    49    1
    15    49    50    1
    16    49    51    1
    17    51    52    1
    18    52    56    1
    19    56    57    1
    20    56    58    1
    21    52    53    1
    22    53    54    1
    23     4     5    1
    24     5     6    1
    25     5     7    1
    26     5     8    1
    27     8     9    1
    28     9    10    1
    29     9    11    1
    30    11    12    1
    31    12    13    1
    32    12    14   am
    33    14    15    2
    34    14    16    1
    35    16    17    1
    36    17    59    1
    37    59    60    1
    38    60    61   ar
    39    61    62   ar
    40    62    63   ar
    41    63    66    1
    42    66    67   am
    43    67    68    2
    44    67    70    1
    45    70    83    1
    46    83    84    1
    47    84    85   ar
    48    85    86   ar
    49    86    87   ar
    50    87    88   ar
    51    88    89   ar
    52    89    90    1
    53    70    71    1
    54    71    72   am
    55    72    73    2
    56    72    74   am
    57    74    77    1
    58    77    78   ar
    59    78    79   ar
    60    79    80   ar
    61    80    81   ar
    62    81    82   ar
    63    63    64   ar
    64    64    65   ar
    65    17    18    1
    66    18    19   am
    67    19    20    2
    68    19    21    1
    69    21    30    1
    70    30    31    1
    71    30    32    1
    72    21    22    1
    73    22    23   am
    74    23    24    2
    75    23    25    1
    76    25    26    1
    77    37    38    1
    78    38    39    1
    79    39    40    1
    80    39    41    1
    81    41    42    1
    82    41    34    1
    83    25     1    1
    84    53    47    1
    85    65    60   ar
    86    89    84   ar
    87    82    77   ar
    88    54    55    1
    89     7    27    1
    90    66    69    1
    91    71    75    1
    92    74    76    1
    93    18    28    1
    94    22    29    1
    95    42    43    1
@<TRIPOS>MOLECULE
*****
 90 95 0 0 0
SMALL
GASTEIGER

@<TRIPOS>ATOM
      1 C         139.0468  143.9375  156.6747 C.3     1  UNL1        0.1286
      2 C         138.6509  142.9650  155.6033 C.3     1  UNL1        0.0574
      3 C         137.7711  143.8337  154.7541 C.3     1  UNL1        0.0051
      4 C         138.5784  141.6734  154.8440 C.3     1  UNL1        0.1444
      5 C         138.8390  140.2370  154.4994 C.3     1  UNL1        0.1134
      6 C         137.9331  140.9187  153.5174 C.3     1  UNL1        0.0318
      7 O         138.3934  139.3320  153.3893 O.3     1  UNL1       -0.3844
      8 C         139.3977  138.8498  154.6161 C.3     1  UNL1        0.0310
      9 C         140.1787  137.6991  155.1781 C.3     1  UNL1        0.0223
     10 C         139.8604  136.6326  154.1725 C.3     1  UNL1        0.0018
     11 C         141.0768  136.9404  156.1096 C.3     1  UNL1        0.0935
     12 N         141.9706  136.6761  157.2848 N.am    1  UNL1       -0.2777
     13 C         142.3108  135.2336  157.0536 C.3     1  UNL1        0.1148
     14 C         142.7395  136.9419  158.5451 C.2     1  UNL1        0.2274
     15 O         143.3621  135.5971  158.7769 O.2     1  UNL1       -0.2748
     16 C         143.2794  137.7020  159.7201 C.3     1  UNL1        0.1051
     17 C         143.5176  138.8536  160.6513 C.3     1  UNL1        0.0850
     18 N         143.4220  140.2412  161.2128 N.am    1  UNL1       -0.3038
     19 C         143.0052  141.6775  161.3288 C.2     1  UNL1        0.2403
     20 O         143.7256  142.0730  162.5836 O.2     1  UNL1       -0.2733
     21 C         142.3238  142.9684  160.9836 C.3     1  UNL1        0.1485
     22 N         141.4697  143.9396  160.2239 N.am    1  UNL1       -0.2983
     23 C         140.5582  144.4600  159.1523 C.2     1  UNL1        0.2247
     24 O         140.3792  145.8782  159.6072 O.2     1  UNL1       -0.2750
     25 C         139.7125  144.4593  157.9134 C.3     1  UNL1        0.1037
     26 C         139.4783  145.6257  158.1602 C.3     1  UNL1        0.0121
     27 H         137.8126  139.8218  152.7863 H       1  UNL1        0.2103
     28 H         143.9952  140.1544  162.0084 H       1  UNL1        0.1494
     29 H         141.5721  144.7449  160.7810 H       1  UNL1        0.1498
     30 C         142.7937  143.8384  162.1117 C.3     1  UNL1        0.0269
     31 C         141.9708  143.9573  163.3600 C.3     1  UNL1        0.0022
     32 C         144.0866  144.5893  161.9911 C.3     1  UNL1        0.0022
     33 O         138.3124  145.1634  156.2191 O.3     1  UNL1       -0.3324
     34 C         139.2984  148.6573  154.6157 C.3     1  UNL1        0.1246
     35 C         139.6543  149.9882  154.0224 C.3     1  UNL1        0.0324
     36 C         138.5956  147.6296  155.4523 C.3     1  UNL1        0.0910
     37 C         139.0152  146.1912  155.3825 C.3     1  UNL1        0.2375
     38 O         140.1376  145.7805  154.4761 O.3     1  UNL1       -0.3304
     39 C         140.8404  146.8082  153.6396 C.3     1  UNL1        0.1468
     40 C         141.9628  146.3975  152.7332 C.3     1  UNL1        0.0348
     41 C         140.4208  148.2466  153.7093 C.3     1  UNL1        0.1623
     42 O         141.1236  149.2743  152.8728 O.3     1  UNL1       -0.3796
     43 H         140.7323  150.1467  153.0361 H       1  UNL1        0.2105
     44 C         138.3590  149.6913  156.8062 C.3     1  UNL1        0.1740
     45 O         138.2996  149.5303  155.3161 O.3     1  UNL1       -0.3532
     46 O         137.6719  142.0674  153.7158 O.3     1  UNL1       -0.3287
     47 C         136.1950  141.8270  153.8214 C.3     1  UNL1        0.2643
     48 O         135.6744  140.7347  154.7079 O.3     1  UNL1       -0.3311
     49 C         134.1977  140.4943  154.8135 C.3     1  UNL1        0.1194
     50 C         133.6771  139.4021  155.7000 C.3     1  UNL1        0.0322
     51 C         133.2413  141.3461  154.0324 C.3     1  UNL1        0.0482
     52 C         133.7619  142.4383  153.1459 C.3     1  UNL1        0.0921
     53 C         135.2388  142.6788  153.0403 C.3     1  UNL1        0.1815
     54 O         135.7594  143.7710  152.1537 O.3     1  UNL1       -0.3783
     55 H         135.0152  144.2216  151.7249 H       1  UNL1        0.2106
     56 N         132.8057  143.2901  152.3648 N.3     1  UNL1       -0.2692
     57 C         133.1932  144.6847  151.9711 C.3     1  UNL1        0.0897
     58 C         131.4621  142.7474  151.9774 C.3     1  UNL1        0.0897
     59 C         144.4263  138.2113  161.6572 C.3     1  UNL1        0.0464
     60 C         144.1193  138.3188  163.1215 C.ar    1  UNL1       -0.0204
     61 C         142.7858  137.8721  163.6431 C.ar    1  UNL1       -0.0029
     62 C         142.4789  137.9796  165.1074 C.ar    1  UNL1        0.0143
     63 C         143.5055  138.5340  166.0501 C.ar    1  UNL1        0.0503
     64 C         144.8390  138.9808  165.5286 C.ar    1  UNL1        0.0143
     65 C         145.1460  138.8732  164.0643 C.ar    1  UNL1       -0.0029
     66 N         143.1985  138.6416  167.5145 N.am    1  UNL1       -0.2826
     67 C         142.9427  139.9851  168.1305 C.2     1  UNL1        0.2444
     68 O         142.9939  141.2211  167.2821 O.2     1  UNL1       -0.2730
     69 H         143.1650  137.8303  168.0713 H       1  UNL1        0.1549
     70 C         142.6357  140.0926  169.5948 C.3     1  UNL1        0.1544
     71 N         143.7181  139.8603  170.6070 N.am    1  UNL1       -0.2821
     72 C         144.0476  138.4644  171.0459 C.2     1  UNL1        0.3048
     73 O         143.2947  137.3006  170.4726 O.2     1  UNL1       -0.2525
     74 N         145.1300  138.2321  172.0581 N.am    1  UNL1       -0.2683
     75 H         144.2123  140.6242  170.9833 H       1  UNL1        0.1514
     76 H         145.6242  138.9960  172.4344 H       1  UNL1        0.1564
     77 C         145.4595  136.8361  172.4969 C.ar    1  UNL1        0.0516
     78 C         146.4499  136.6110  173.6007 C.ar    1  UNL1        0.0147
     79 C         146.7793  135.2150  174.0396 C.ar    1  UNL1        0.0013
     80 C         146.1184  134.0441  173.3746 C.ar    1  UNL1        0.0001
     81 C         145.1280  134.2692  172.2709 C.ar    1  UNL1        0.0013
     82 C         144.7985  135.6652  171.8320 C.ar    1  UNL1        0.0147
     83 C         141.2465  140.4323  170.0469 C.3     1  UNL1        0.0562
     84 C         140.7372  141.8370  169.9148 C.ar    1  UNL1       -0.0094
     85 C         140.6212  142.4683  168.5591 C.ar    1  UNL1       -0.0034
     86 C         140.1119  143.8731  168.4270 C.ar    1  UNL1       -0.0003
     87 C         139.7186  144.6464  169.6506 C.ar    1  UNL1        0.0008
     88 C         139.8345  144.0150  171.0063 C.ar    1  UNL1        0.0111
     89 C         140.3438  142.6104  171.1384 C.ar    1  UNL1        0.0538
     90 CL        140.4598  141.9789  172.4941 Cl      1  UNL1       -0.0826
@<TRIPOS>BOND
     1    44    45    1
     2    45    34    1
     3    34    35    1
     4    34    36    1
     5    36    37    1
     6    37    33    1
     7     1    33    1
     8     1     2    1
     9     2     3    1
    10     2     4    1
    11     4    46    1
    12    47    46    1
    13    47    48    1
    14    48    49    1
    15    49    50    1
    16    49    51    1
    17    51    52    1
    18    52    56    1
    19    56    57    1
    20    56    58    1
    21    52    53    1
    22    53    54    1
    23     4     5    1
    24     5     6    1
    25     5     7    1
    26     5     8    1
    27     8     9    1
    28     9    10    1
    29     9    11    1
    30    11    12    1
    31    12    13    1
    32    12    14   am
    33    14    15    2
    34    14    16    1
    35    16    17    1
    36    17    59    1
    37    59    60    1
    38    60    61   ar
    39    61    62   ar
    40    62    63   ar
    41    63    66    1
    42    66    67   am
    43    67    68    2
    44    67    70    1
    45    70    83    1
    46    83    84    1
    47    84    85   ar
    48    85    86   ar
    49    86    87   ar
    50    87    88   ar
    51    88    89   ar
    52    89    90    1
    53    70    71    1
    54    71    72   am
    55    72    73    2
    56    72    74   am
    57    74    77    1
    58    77    78   ar
    59    78    79   ar
    60    79    80   ar
    61    80    81   ar
    62    81    82   ar
    63    63    64   ar
    64    64    65   ar
    65    17    18    1
    66    18    19   am
    67    19    20    2
    68    19    21    1
    69    21    30    1
    70    30    31    1
    71    30    32    1
    72    21    22    1
    73    22    23   am
    74    23    24    2
    75    23    25    1
    76    25    26    1
    77    37    38    1
    78    38    39    1
    79    39    40    1
    80    39    41    1
    81    41    42    1
    82    41    34    1
    83    25     1    1
    84    53    47    1
    85    65    60   ar
    86    89    84   ar
    87    82    77   ar
    88    54    55    1
    89     7    27    1
    90    66    69    1
    91    71    75    1
    92    74    76    1
    93    18    28    1
    94    22    29    1
    95    42    43    1
@<TRIPOS>MOLECULE
*****
 90 95 0 0 0
SMALL
GASTEIGER

@<TRIPOS>ATOM
      1 C         143.2581  138.9363  155.8306 C.3     1  UNL1        0.1286
      2 C         143.3103  140.0503  154.8274 C.3     1  UNL1        0.0574
      3 C         143.9882  139.3583  153.6822 C.3     1  UNL1        0.0051
      4 C         143.1135  141.4186  154.2451 C.3     1  UNL1        0.1444
      5 C         142.6941  142.8563  154.1623 C.3     1  UNL1        0.1134
      6 C         143.3526  142.3662  152.9069 C.3     1  UNL1        0.0318
      7 O         142.7880  143.9120  153.1009 O.3     1  UNL1       -0.3844
      8 C         142.1088  144.1694  154.5903 C.3     1  UNL1        0.0310
      9 C         141.4367  145.1805  155.4711 C.3     1  UNL1        0.0223
     10 C         141.4259  146.3739  154.5624 C.3     1  UNL1        0.0018
     11 C         140.7685  145.7531  156.6859 C.3     1  UNL1        0.0935
     12 N         140.1945  145.8098  158.0706 N.am    1  UNL1       -0.2777
     13 C         139.7273  147.2344  158.1172 C.3     1  UNL1        0.1148
     14 C         139.7922  145.3429  159.4382 C.2     1  UNL1        0.2274
     15 O         139.1772  146.5960  159.9873 O.2     1  UNL1       -0.2748
     16 C         139.6160  144.4155  160.6038 C.3     1  UNL1        0.1051
     17 C         139.6896  143.1529  161.4103 C.3     1  UNL1        0.0850
     18 N         140.0030  141.7256  161.7486 N.am    1  UNL1       -0.3038
     19 C         140.5141  140.3263  161.5730 C.2     1  UNL1        0.2403
     20 O         140.1643  139.7358  162.9068 O.2     1  UNL1       -0.2733
     21 C         141.1537  139.1441  160.9073 C.3     1  UNL1        0.1485
     22 N         141.8354  138.3385  159.8413 N.am    1  UNL1       -0.2983
     23 C         142.4672  138.0185  158.5191 C.2     1  UNL1        0.2247
     24 O         142.8353  136.5797  158.7305 O.2     1  UNL1       -0.2750
     25 C         142.9639  138.2271  157.1191 C.3     1  UNL1        0.1037
     26 C         143.3177  137.0651  157.1491 C.3     1  UNL1        0.0121
     27 H         143.2200  143.5427  152.3148 H       1  UNL1        0.2103
     28 H         139.6502  141.6755  162.6664 H       1  UNL1        0.1494
     29 H         141.9246  137.4715  160.2990 H       1  UNL1        0.1498
     30 C         141.0389  138.1190  161.9965 C.3     1  UNL1        0.0269
     31 C         139.6949  137.5661  162.3674 C.3     1  UNL1        0.0022
     32 C         142.2684  137.6470  162.7146 C.3     1  UNL1        0.0022
     33 O         143.9168  137.8349  155.0540 O.3     1  UNL1       -0.3324
     34 C         141.0846  135.9562  153.0047 C.3     1  UNL1        0.1246
     35 C         140.0056  135.2669  152.2234 C.3     1  UNL1        0.0324
     36 C         141.9140  137.0596  153.5919 C.3     1  UNL1        0.0910
     37 C         143.0874  136.7315  154.4668 C.3     1  UNL1        0.2375
     38 O         143.4314  135.3002  154.7545 O.3     1  UNL1       -0.3304
     39 C         142.6021  134.1969  154.1673 C.3     1  UNL1        0.1468
     40 C         142.9462  132.7655  154.4550 C.3     1  UNL1        0.0348
     41 C         141.4287  134.5248  153.2924 C.3     1  UNL1        0.1623
     42 O         140.5993  133.4215  152.7052 O.3     1  UNL1       -0.3796
     43 H         139.8864  133.8030  152.1694 H       1  UNL1        0.2105
     44 C         139.0559  137.5790  153.0362 C.3     1  UNL1        0.1740
     45 O         140.3658  137.1482  152.4456 O.3     1  UNL1       -0.3532
     46 O         143.7190  141.2293  152.8859 O.3     1  UNL1       -0.3287
     47 C         145.2102  141.2182  152.7241 C.3     1  UNL1        0.2643
     48 O         145.9229  139.9322  152.4273 O.3     1  UNL1       -0.3311
     49 C         147.4141  139.9211  152.2655 C.3     1  UNL1        0.1194
     50 C         148.1267  138.6350  151.9687 C.3     1  UNL1        0.0322
     51 C         148.1926  141.1961  152.4005 C.3     1  UNL1        0.0482
     52 C         147.4800  142.4822  152.6974 C.3     1  UNL1        0.0921
     53 C         145.9887  142.4932  152.8591 C.3     1  UNL1        0.1815
     54 O         145.2760  143.7793  153.1560 O.3     1  UNL1       -0.3783
     55 H         145.9214  144.5014  153.2105 H       1  UNL1        0.2106
     56 N         148.2585  143.7572  152.8324 N.3     1  UNL1       -0.2692
     57 C         147.5403  145.0532  153.0665 C.3     1  UNL1        0.0897
     58 C         149.7550  143.7363  152.7334 C.3     1  UNL1        0.0897
     59 C         139.0368  143.6012  162.6843 C.3     1  UNL1        0.0464
     60 C         139.4293  142.9739  163.9891 C.ar    1  UNL1       -0.0204
     61 C         138.6229  141.8396  164.5487 C.ar    1  UNL1       -0.0029
     62 C         139.0154  141.2124  165.8534 C.ar    1  UNL1        0.0143
     63 C         140.2143  141.7196  166.5987 C.ar    1  UNL1        0.0503
     64 C         141.0207  142.8539  166.0392 C.ar    1  UNL1        0.0143
     65 C         140.6282  143.4811  164.7344 C.ar    1  UNL1       -0.0029
     66 N         140.6068  141.0923  167.9036 N.am    1  UNL1       -0.2826
     67 C         141.7742  140.1523  167.9628 C.2     1  UNL1        0.2444
     68 O         142.5491  139.8394  166.7171 O.2     1  UNL1       -0.2730
     69 H         140.0982  141.2977  168.7211 H       1  UNL1        0.1549
     70 C         142.1666  139.5251  169.2676 C.3     1  UNL1        0.1544
     71 N         142.8154  138.1727  169.2846 N.am    1  UNL1       -0.2821
     72 C         143.7115  137.7849  170.4233 C.2     1  UNL1        0.3048
     73 O         143.9588  138.7495  171.5451 O.2     1  UNL1       -0.2525
     74 N         144.3602  136.4326  170.4402 N.am    1  UNL1       -0.2683
     75 H         142.6531  137.5396  168.5483 H       1  UNL1        0.1514
     76 H         144.1979  135.7995  169.7039 H       1  UNL1        0.1564
     77 C         145.2563  136.0448  171.5789 C.ar    1  UNL1        0.0516
     78 C         146.5533  136.7674  171.7924 C.ar    1  UNL1        0.0147
     79 C         147.4493  136.3797  172.9311 C.ar    1  UNL1        0.0013
     80 C         147.0484  135.2692  173.8565 C.ar    1  UNL1        0.0001
     81 C         145.7514  134.5466  173.6430 C.ar    1  UNL1        0.0013
     82 C         144.8554  134.9344  172.5043 C.ar    1  UNL1        0.0147
     83 C         141.9103  140.2501  170.5554 C.3     1  UNL1        0.0562
     84 C         141.3850  141.6549  170.5335 C.ar    1  UNL1       -0.0094
     85 C         139.9331  141.9170  170.8037 C.ar    1  UNL1       -0.0034
     86 C         139.4077  143.3219  170.7817 C.ar    1  UNL1       -0.0003
     87 C         140.3345  144.4647  170.4897 C.ar    1  UNL1        0.0008
     88 C         141.7864  144.2026  170.2195 C.ar    1  UNL1        0.0111
     89 C         142.3117  142.7978  170.2415 C.ar    1  UNL1        0.0538
     90 CL        143.7638  142.5356  169.9713 Cl      1  UNL1       -0.0826
@<TRIPOS>BOND
     1    44    45    1
     2    45    34    1
     3    34    35    1
     4    34    36    1
     5    36    37    1
     6    37    33    1
     7     1    33    1
     8     1     2    1
     9     2     3    1
    10     2     4    1
    11     4    46    1
    12    47    46    1
    13    47    48    1
    14    48    49    1
    15    49    50    1
    16    49    51    1
    17    51    52    1
    18    52    56    1
    19    56    57    1
    20    56    58    1
    21    52    53    1
    22    53    54    1
    23     4     5    1
    24     5     6    1
    25     5     7    1
    26     5     8    1
    27     8     9    1
    28     9    10    1
    29     9    11    1
    30    11    12    1
    31    12    13    1
    32    12    14   am
    33    14    15    2
    34    14    16    1
    35    16    17    1
    36    17    59    1
    37    59    60    1
    38    60    61   ar
    39    61    62   ar
    40    62    63   ar
    41    63    66    1
    42    66    67   am
    43    67    68    2
    44    67    70    1
    45    70    83    1
    46    83    84    1
    47    84    85   ar
    48    85    86   ar
    49    86    87   ar
    50    87    88   ar
    51    88    89   ar
    52    89    90    1
    53    70    71    1
    54    71    72   am
    55    72    73    2
    56    72    74   am
    57    74    77    1
    58    77    78   ar
    59    78    79   ar
    60    79    80   ar
    61    80    81   ar
    62    81    82   ar
    63    63    64   ar
    64    64    65   ar
    65    17    18    1
    66    18    19   am
    67    19    20    2
    68    19    21    1
    69    21    30    1
    70    30    31    1
    71    30    32    1
    72    21    22    1
    73    22    23   am
    74    23    24    2
    75    23    25    1
    76    25    26    1
    77    37    38    1
    78    38    39    1
    79    39    40    1
    80    39    41    1
    81    41    42    1
    82    41    34    1
    83    25     1    1
    84    53    47    1
    85    65    60   ar
    86    89    84   ar
    87    82    77   ar
    88    54    55    1
    89     7    27    1
    90    66    69    1
    91    71    75    1
    92    74    76    1
    93    18    28    1
    94    22    29    1
    95    42    43    1
@<TRIPOS>MOLECULE
*****
 90 95 0 0 0
SMALL
GASTEIGER

@<TRIPOS>ATOM
      1 C         143.5609  138.5449  155.7968 C.3     1  UNL1        0.1286
      2 C         143.7624  139.5905  154.7403 C.3     1  UNL1        0.0574
      3 C         144.5519  138.8125  153.7297 C.3     1  UNL1        0.0051
      4 C         143.6738  140.9220  154.0551 C.3     1  UNL1        0.1444
      5 C         143.3071  142.3595  153.8340 C.3     1  UNL1        0.1134
      6 C         144.0960  141.7762  152.6994 C.3     1  UNL1        0.0318
      7 O         143.5553  143.3423  152.7284 O.3     1  UNL1       -0.3844
      8 C         142.7116  143.7090  154.1067 C.3     1  UNL1        0.0310
      9 C         141.9680  144.7882  154.8363 C.3     1  UNL1        0.0223
     10 C         142.0980  145.9203  153.8609 C.3     1  UNL1        0.0018
     11 C         141.1765  145.4513  155.9243 C.3     1  UNL1        0.0935
     12 N         140.4442  145.6088  157.2238 N.am    1  UNL1       -0.2777
     13 C         140.0142  147.0425  157.1260 C.3     1  UNL1        0.1148
     14 C         139.8698  145.2394  158.5594 C.2     1  UNL1        0.2274
     15 O         139.2288  146.5374  158.9522 O.2     1  UNL1       -0.2748
     16 C         139.5311  144.3930  159.7505 C.3     1  UNL1        0.1051
     17 C         139.4736  143.1839  160.6364 C.3     1  UNL1        0.0850
     18 N         139.7052  141.7755  161.0974 N.am    1  UNL1       -0.3038
     19 C         140.1947  140.3578  161.0712 C.2     1  UNL1        0.2403
     20 O         139.6730  139.8618  162.3872 O.2     1  UNL1       -0.2733
     21 C         140.8758  139.1224  160.5614 C.3     1  UNL1        0.1485
     22 N         141.6566  138.2362  159.6368 N.am    1  UNL1       -0.2983
     23 C         142.4317  137.8188  158.4224 C.2     1  UNL1        0.2247
     24 O         142.7322  136.3896  158.7649 O.2     1  UNL1       -0.2750
     25 C         143.0964  137.9265  157.0820 C.3     1  UNL1        0.1037
     26 C         143.4119  136.7621  157.2259 C.3     1  UNL1        0.0121
     27 H         144.0671  142.9144  152.0242 H       1  UNL1        0.2103
     28 H         139.2448  141.7919  161.9675 H       1  UNL1        0.1494
     29 H         141.6669  137.3989  160.1546 H       1  UNL1        0.1498
     30 C         140.6044  138.1724  161.6901 C.3     1  UNL1        0.0269
     31 C         139.1913  137.8374  162.0652 C.3     1  UNL1        0.0022
     32 C         141.7463  137.5573  162.4436 C.3     1  UNL1        0.0022
     33 O         144.2763  137.3827  155.1744 O.3     1  UNL1       -0.3324
     34 C         143.0486  133.6400  154.6899 C.3     1  UNL1        0.1246
     35 C         142.6009  132.2183  154.5220 C.3     1  UNL1        0.0324
     36 C         143.8274  134.8238  155.1821 C.3     1  UNL1        0.0910
     37 C         143.4975  136.1990  154.6822 C.3     1  UNL1        0.2375
     38 O         142.3889  136.3904  153.6901 O.3     1  UNL1       -0.3304
     39 C         141.6102  135.2067  153.1979 C.3     1  UNL1        0.1468
     40 C         140.5016  135.3982  152.2058 C.3     1  UNL1        0.0348
     41 C         141.9400  133.8314  153.6978 C.3     1  UNL1        0.1623
     42 O         141.1612  132.6477  153.2056 O.3     1  UNL1       -0.3796
     43 H         141.4997  131.8411  153.6247 H       1  UNL1        0.2105
     44 C         143.8011  133.0551  157.1069 C.3     1  UNL1        0.1740
     45 O         144.0017  132.9547  155.6237 O.3     1  UNL1       -0.3532
     46 O         144.4308  140.6333  152.7928 O.3     1  UNL1       -0.3287
     47 C         145.7378  141.3202  152.5282 C.3     1  UNL1        0.2643
     48 O         145.7848  142.8123  152.3823 O.3     1  UNL1       -0.3311
     49 C         147.0918  143.4992  152.1178 C.3     1  UNL1        0.1194
     50 C         147.1388  144.9913  151.9718 C.3     1  UNL1        0.0322
     51 C         148.3518  142.6940  151.9992 C.3     1  UNL1        0.0482
     52 C         148.3047  141.2018  152.1452 C.3     1  UNL1        0.0921
     53 C         146.9977  140.5149  152.4097 C.3     1  UNL1        0.1815
     54 O         146.9507  139.0228  152.5557 O.3     1  UNL1       -0.3783
     55 H         147.8441  138.6595  152.4523 H       1  UNL1        0.2106
     56 N         149.5647  140.3966  152.0266 N.3     1  UNL1       -0.2692
     57 C         150.8943  141.0885  151.9678 C.3     1  UNL1        0.0897
     58 C         149.4951  138.8994  151.9669 C.3     1  UNL1        0.0897
     59 C         138.6869  143.7265  161.7926 C.3     1  UNL1        0.0464
     60 C         138.8858  143.1594  163.1670 C.ar    1  UNL1       -0.0204
     61 C         140.0473  143.6088  164.0030 C.ar    1  UNL1       -0.0029
     62 C         140.2461  143.0417  165.3773 C.ar    1  UNL1        0.0143
     63 C         139.2833  142.0251  165.9157 C.ar    1  UNL1        0.0503
     64 C         138.1218  141.5758  165.0797 C.ar    1  UNL1        0.0143
     65 C         137.9230  142.1429  163.7054 C.ar    1  UNL1       -0.0029
     66 N         139.4822  141.4580  167.2901 N.am    1  UNL1       -0.2826
     67 C         140.6464  141.9038  168.1242 C.2     1  UNL1        0.2444
     68 O         141.6119  142.9168  167.5839 O.2     1  UNL1       -0.2730
     69 H         138.8485  140.7932  167.6447 H       1  UNL1        0.1549
     70 C         140.8452  141.3367  169.4985 C.3     1  UNL1        0.1544
     71 N         139.9881  141.8082  170.6356 N.am    1  UNL1       -0.2821
     72 C         139.5884  143.2512  170.7253 C.2     1  UNL1        0.3048
     73 O         140.0458  144.2227  169.6780 O.2     1  UNL1       -0.2525
     74 N         138.7312  143.7227  171.8624 N.am    1  UNL1       -0.2683
     75 H         139.6879  141.1707  171.3231 H       1  UNL1        0.1514
     76 H         138.4310  143.0852  172.5499 H       1  UNL1        0.1564
     77 C         138.3315  145.1657  171.9521 C.ar    1  UNL1        0.0516
     78 C         139.1582  146.2166  171.2724 C.ar    1  UNL1        0.0147
     79 C         138.7585  147.6596  171.3621 C.ar    1  UNL1        0.0013
     80 C         137.5320  148.0517  172.1316 C.ar    1  UNL1        0.0001
     81 C         136.7053  147.0007  172.8113 C.ar    1  UNL1        0.0013
     82 C         137.1050  145.5578  172.7216 C.ar    1  UNL1        0.0147
     83 C         141.9011  140.2981  169.7358 C.3     1  UNL1        0.0562
     84 C         142.5310  139.5896  168.5733 C.ar    1  UNL1       -0.0094
     85 C         142.4483  140.1839  167.1986 C.ar    1  UNL1       -0.0034
     86 C         143.0781  139.4755  166.0360 C.ar    1  UNL1       -0.0003
     87 C         143.7906  138.1726  166.2483 C.ar    1  UNL1        0.0008
     88 C         143.8733  137.5783  167.6231 C.ar    1  UNL1        0.0111
     89 C         143.2435  138.2868  168.7855 C.ar    1  UNL1        0.0538
     90 CL        143.3261  137.6925  170.1604 Cl      1  UNL1       -0.0826
@<TRIPOS>BOND
     1    44    45    1
     2    45    34    1
     3    34    35    1
     4    34    36    1
     5    36    37    1
     6    37    33    1
     7     1    33    1
     8     1     2    1
     9     2     3    1
    10     2     4    1
    11     4    46    1
    12    47    46    1
    13    47    48    1
    14    48    49    1
    15    49    50    1
    16    49    51    1
    17    51    52    1
    18    52    56    1
    19    56    57    1
    20    56    58    1
    21    52    53    1
    22    53    54    1
    23     4     5    1
    24     5     6    1
    25     5     7    1
    26     5     8    1
    27     8     9    1
    28     9    10    1
    29     9    11    1
    30    11    12    1
    31    12    13    1
    32    12    14   am
    33    14    15    2
    34    14    16    1
    35    16    17    1
    36    17    59    1
    37    59    60    1
    38    60    61   ar
    39    61    62   ar
    40    62    63   ar
    41    63    66    1
    42    66    67   am
    43    67    68    2
    44    67    70    1
    45    70    83    1
    46    83    84    1
    47    84    85   ar
    48    85    86   ar
    49    86    87   ar
    50    87    88   ar
    51    88    89   ar
    52    89    90    1
    53    70    71    1
    54    71    72   am
    55    72    73    2
    56    72    74   am
    57    74    77    1
    58    77    78   ar
    59    78    79   ar
    60    79    80   ar
    61    80    81   ar
    62    81    82   ar
    63    63    64   ar
    64    64    65   ar
    65    17    18    1
    66    18    19   am
    67    19    20    2
    68    19    21    1
    69    21    30    1
    70    30    31    1
    71    30    32    1
    72    21    22    1
    73    22    23   am
    74    23    24    2
    75    23    25    1
    76    25    26    1
    77    37    38    1
    78    38    39    1
    79    39    40    1
    80    39    41    1
    81    41    42    1
    82    41    34    1
    83    25     1    1
    84    53    47    1
    85    65    60   ar
    86    89    84   ar
    87    82    77   ar
    88    54    55    1
    89     7    27    1
    90    66    69    1
    91    71    75    1
    92    74    76    1
    93    18    28    1
    94    22    29    1
    95    42    43    1
@<TRIPOS>MOLECULE
*****
 90 95 0 0 0
SMALL
GASTEIGER

@<TRIPOS>ATOM
      1 C         143.6920  139.0922  155.6247 C.3     1  UNL1        0.1286
      2 C         143.8180  140.0296  154.4605 C.3     1  UNL1        0.0574
      3 C         144.5632  139.1635  153.4886 C.3     1  UNL1        0.0051
      4 C         143.6701  141.2853  153.6534 C.3     1  UNL1        0.1444
      5 C         143.2684  142.6897  153.3124 C.3     1  UNL1        0.1134
      6 C         144.0031  142.0049  152.1983 C.3     1  UNL1        0.0318
      7 O         143.4394  143.5603  152.1030 O.3     1  UNL1       -0.3844
      8 C         142.6670  144.0532  153.4838 C.3     1  UNL1        0.0310
      9 C         141.9473  145.1915  154.1441 C.3     1  UNL1        0.0223
     10 C         142.0050  146.2224  153.0559 C.3     1  UNL1        0.0018
     11 C         141.2063  145.9511  155.2043 C.3     1  UNL1        0.0935
     12 N         140.5442  146.2292  156.5212 N.am    1  UNL1       -0.2777
     13 C         140.0863  147.6413  156.3067 C.3     1  UNL1        0.1148
     14 C         140.0504  145.9883  157.9169 C.2     1  UNL1        0.2274
     15 O         139.4110  147.3120  158.2153 O.2     1  UNL1       -0.2748
     16 C         139.7916  145.2610  159.2030 C.3     1  UNL1        0.1051
     17 C         139.8027  144.1455  160.2057 C.3     1  UNL1        0.0850
     18 N         140.0822  142.7924  160.7897 N.am    1  UNL1       -0.3038
     19 C         140.5925  141.3845  160.8760 C.2     1  UNL1        0.2403
     20 O         140.1523  141.0163  162.2619 O.2     1  UNL1       -0.2733
     21 C         141.2645  140.1120  160.4530 C.3     1  UNL1        0.1485
     22 N         142.0075  139.1466  159.5778 N.am    1  UNL1       -0.2983
     23 C         142.7212  138.6188  158.3687 C.2     1  UNL1        0.2247
     24 O         143.0633  137.2340  158.8331 O.2     1  UNL1       -0.2750
     25 C         143.3092  138.5997  156.9888 C.3     1  UNL1        0.1037
     26 C         143.6511  137.4588  157.2289 C.3     1  UNL1        0.0121
     27 H         143.9185  143.0700  151.4167 H       1  UNL1        0.2103
     28 H         139.6703  142.8904  161.6785 H       1  UNL1        0.1494
     29 H         142.0599  138.3651  160.1743 H       1  UNL1        0.1498
     30 C         141.0713  139.2760  161.6835 C.3     1  UNL1        0.0269
     31 C         142.0549  139.3645  162.8124 C.3     1  UNL1        0.0022
     32 C         139.8943  138.3516  161.7849 C.3     1  UNL1        0.0022
     33 O         144.3909  137.8816  155.0807 O.3     1  UNL1       -0.3324
     34 C         143.1853  134.1014  154.9951 C.3     1  UNL1        0.1246
     35 C         142.7468  132.6671  154.9778 C.3     1  UNL1        0.0324
     36 C         143.9731  135.3305  155.3400 C.3     1  UNL1        0.0910
     37 C         143.6031  136.6526  154.7358 C.3     1  UNL1        0.2375
     38 O         142.4452  136.7457  153.7867 O.3     1  UNL1       -0.3304
     39 C         141.6575  135.5167  153.4419 C.3     1  UNL1        0.1468
     40 C         140.4997  135.6098  152.4928 C.3     1  UNL1        0.0348
     41 C         142.0275  134.1945  154.0460 C.3     1  UNL1        0.1623
     42 O         141.2398  132.9656  153.7012 O.3     1  UNL1       -0.3796
     43 H         141.6078  132.2025  154.1736 H       1  UNL1        0.2105
     44 C         143.8520  132.2740  156.7173 C.3     1  UNL1        0.1740
     45 O         144.1909  133.5102  155.9382 O.3     1  UNL1       -0.3532
     46 O         144.3610  140.8806  152.3850 O.3     1  UNL1       -0.3287
     47 C         145.8595  140.8613  152.3204 C.3     1  UNL1        0.2643
     48 O         146.5873  139.5577  152.1759 O.3     1  UNL1       -0.3311
     49 C         148.0858  139.5385  152.1113 C.3     1  UNL1        0.1194
     50 C         148.8136  138.2349  151.9668 C.3     1  UNL1        0.0322
     51 C         148.8565  140.8228  152.1912 C.3     1  UNL1        0.0482
     52 C         148.1287  142.1265  152.3357 C.3     1  UNL1        0.0921
     53 C         146.6302  142.1457  152.4003 C.3     1  UNL1        0.1815
     54 O         145.9024  143.4493  152.5448 O.3     1  UNL1       -0.3783
     55 H         146.5442  144.1757  152.5814 H       1  UNL1        0.2106
     56 N         148.8993  143.4108  152.4157 N.3     1  UNL1       -0.2692
     57 C         148.1879  144.6942  152.7270 C.3     1  UNL1        0.0897
     58 C         150.3813  143.4120  152.1844 C.3     1  UNL1        0.0897
     59 C         139.0723  144.7920  161.3453 C.3     1  UNL1        0.0464
     60 C         138.9551  144.0808  162.6608 C.ar    1  UNL1       -0.0204
     61 C         137.8017  143.1556  162.9131 C.ar    1  UNL1       -0.0029
     62 C         137.6845  142.4444  164.2286 C.ar    1  UNL1        0.0143
     63 C         138.7208  142.6585  165.2918 C.ar    1  UNL1        0.0503
     64 C         139.8742  143.5837  165.0395 C.ar    1  UNL1        0.0143
     65 C         139.9913  144.2949  163.7240 C.ar    1  UNL1       -0.0029
     66 N         138.6036  141.9473  166.6073 N.am    1  UNL1       -0.2826
     67 C         139.3139  140.6436  166.8210 C.2     1  UNL1        0.2444
     68 O         140.1414  140.0510  165.7191 O.2     1  UNL1       -0.2730
     69 H         138.0605  142.3363  167.3305 H       1  UNL1        0.1549
     70 C         139.1967  139.9324  168.1365 C.3     1  UNL1        0.1544
     71 N         137.9650  139.1363  168.4515 N.am    1  UNL1       -0.2821
     72 C         137.6452  138.7804  169.8732 C.2     1  UNL1        0.3048
     73 O         138.5571  139.2206  170.9798 O.2     1  UNL1       -0.2525
     74 N         136.4135  137.9843  170.1882 N.am    1  UNL1       -0.2683
     75 H         137.3665  138.8474  167.7252 H       1  UNL1        0.1514
     76 H         135.8150  137.6954  169.4619 H       1  UNL1        0.1564
     77 C         136.0938  137.6285  171.6098 C.ar    1  UNL1        0.0516
     78 C         136.6652  136.3819  172.2176 C.ar    1  UNL1        0.0147
     79 C         136.3455  136.0260  173.6393 C.ar    1  UNL1        0.0013
     80 C         135.4542  136.9167  174.4532 C.ar    1  UNL1        0.0001
     81 C         134.8828  138.1633  173.8453 C.ar    1  UNL1        0.0013
     82 C         135.2025  138.5192  172.4237 C.ar    1  UNL1        0.0147
     83 C         140.3111  140.0173  169.1369 C.3     1  UNL1        0.0562
     84 C         140.8323  141.3564  169.5671 C.ar    1  UNL1       -0.0094
     85 C         139.9267  142.5521  169.5577 C.ar    1  UNL1       -0.0034
     86 C         140.4480  143.8913  169.9879 C.ar    1  UNL1       -0.0003
     87 C         141.8750  144.0346  170.4276 C.ar    1  UNL1        0.0008
     88 C         142.7806  142.8389  170.4370 C.ar    1  UNL1        0.0111
     89 C         142.2593  141.4998  170.0068 C.ar    1  UNL1        0.0538
     90 CL        143.1649  140.3040  170.0162 Cl      1  UNL1       -0.0826
@<TRIPOS>BOND
     1    44    45    1
     2    45    34    1
     3    34    35    1
     4    34    36    1
     5    36    37    1
     6    37    33    1
     7     1    33    1
     8     1     2    1
     9     2     3    1
    10     2     4    1
    11     4    46    1
    12    47    46    1
    13    47    48    1
    14    48    49    1
    15    49    50    1
    16    49    51    1
    17    51    52    1
    18    52    56    1
    19    56    57    1
    20    56    58    1
    21    52    53    1
    22    53    54    1
    23     4     5    1
    24     5     6    1
    25     5     7    1
    26     5     8    1
    27     8     9    1
    28     9    10    1
    29     9    11    1
    30    11    12    1
    31    12    13    1
    32    12    14   am
    33    14    15    2
    34    14    16    1
    35    16    17    1
    36    17    59    1
    37    59    60    1
    38    60    61   ar
    39    61    62   ar
    40    62    63   ar
    41    63    66    1
    42    66    67   am
    43    67    68    2
    44    67    70    1
    45    70    83    1
    46    83    84    1
    47    84    85   ar
    48    85    86   ar
    49    86    87   ar
    50    87    88   ar
    51    88    89   ar
    52    89    90    1
    53    70    71    1
    54    71    72   am
    55    72    73    2
    56    72    74   am
    57    74    77    1
    58    77    78   ar
    59    78    79   ar
    60    79    80   ar
    61    80    81   ar
    62    81    82   ar
    63    63    64   ar
    64    64    65   ar
    65    17    18    1
    66    18    19   am
    67    19    20    2
    68    19    21    1
    69    21    30    1
    70    30    31    1
    71    30    32    1
    72    21    22    1
    73    22    23   am
    74    23    24    2
    75    23    25    1
    76    25    26    1
    77    37    38    1
    78    38    39    1
    79    39    40    1
    80    39    41    1
    81    41    42    1
    82    41    34    1
    83    25     1    1
    84    53    47    1
    85    65    60   ar
    86    89    84   ar
    87    82    77   ar
    88    54    55    1
    89     7    27    1
    90    66    69    1
    91    71    75    1
    92    74    76    1
    93    18    28    1
    94    22    29    1
    95    42    43    1
