@<TRIPOS>MOLECULE
*****
 32 35 0 0 0
SMALL
GASTEIGER

@<TRIPOS>ATOM
      1 C         139.4336  138.9276  163.0595 C.ar    1  UNL1        0.0505
      2 C         139.3945  137.8042  164.0526 C.ar    1  UNL1        0.0148
      3 C         139.2412  138.1008  165.5149 C.ar    1  UNL1        0.0060
      4 C         139.1270  139.5210  165.9842 C.ar    1  UNL1        0.0553
      5 C         139.1661  140.6444  164.9911 C.ar    1  UNL1        0.0060
      6 C         139.3195  140.3477  163.5288 C.ar    1  UNL1        0.0148
      7 C         138.9736  139.8176  167.4466 C.ar    1  UNL1        0.2512
      8 N         138.0852  139.0835  168.4067 N.ar    1  UNL1       -0.1058
      9 N         138.2442  139.7125  169.7591 N.ar    1  UNL1       -0.0923
     10 C         139.2310  140.8355  169.6348 C.ar    1  UNL1        0.3086
     11 O         139.6818  140.9004  168.2056 O.2     1  UNL1       -0.4048
     12 N         139.6870  141.7355  170.7448 N.pl3   1  UNL1       -0.2871
     13 H         139.0700  142.4037  171.1216 H       1  UNL1        0.1512
     14 C         141.0830  141.6173  171.2807 C.3     1  UNL1        0.0925
     15 C         142.2560  141.8570  170.3771 C.3     1  UNL1        0.0386
     16 C         142.9483  140.6981  169.7234 C.3     1  UNL1        0.0738
     17 N         142.8859  140.5302  168.2342 N.3     1  UNL1       -0.2726
     18 C         142.8707  139.1554  167.6343 C.3     1  UNL1        0.0721
     19 C         142.8084  138.9875  166.1451 C.3     1  UNL1        0.0174
     20 C         142.7612  140.1944  165.2556 C.3     1  UNL1        0.0029
     21 C         142.7764  141.5692  165.8554 C.3     1  UNL1        0.0174
     22 C         142.8388  141.7371  167.3447 C.3     1  UNL1        0.0721
     23 O         142.1440  139.0530  161.7796 O.2     1  UNL1       -0.2698
     24 C         140.9421  138.6937  160.9572 C.2     1  UNL1        0.2495
     25 N         139.5870  138.6310  161.5971 N.am    1  UNL1       -0.2804
     26 H         138.7982  138.3951  161.0573 H       1  UNL1        0.1552
     27 C         141.0955  138.3970  159.4948 C.ar    1  UNL1        0.0537
     28 C         142.4466  138.0646  158.9346 C.ar    1  UNL1        0.0045
     29 C         142.5999  137.7679  157.4723 C.ar    1  UNL1        0.0001
     30 C         141.4021  137.8038  156.5701 C.ar    1  UNL1        0.0000
     31 C         140.0509  138.1363  157.1303 C.ar    1  UNL1        0.0001
     32 C         139.8976  138.4329  158.5926 C.ar    1  UNL1        0.0045
@<TRIPOS>BOND
     1    23    24    2
     2    24    25   am
     3    25     1    1
     4     1     2   ar
     5     2     3   ar
     6     3     4   ar
     7     4     7    1
     8     7     8   ar
     9     8     9   ar
    10     9    10   ar
    11    10    12    1
    12    12    14    1
    13    14    15    1
    14    15    16    1
    15    16    17    1
    16    17    18    1
    17    18    19    1
    18    19    20    1
    19    20    21    1
    20    21    22    1
    21    10    11   ar
    22     4     5   ar
    23     5     6   ar
    24    24    27    1
    25    27    28   ar
    26    28    29   ar
    27    29    30   ar
    28    30    31   ar
    29    31    32   ar
    30     6     1   ar
    31    32    27   ar
    32    11     7   ar
    33    22    17    1
    34    25    26    1
    35    12    13    1
@<TRIPOS>MOLECULE
*****
 32 35 0 0 0
SMALL
GASTEIGER

@<TRIPOS>ATOM
      1 C         140.2077  144.7965  160.9866 C.ar    1  UNL1        0.0505
      2 C         140.5323  145.7443  162.1029 C.ar    1  UNL1        0.0148
      3 C         140.8573  145.2129  163.4674 C.ar    1  UNL1        0.0060
      4 C         140.8577  143.7336  163.7156 C.ar    1  UNL1        0.0553
      5 C         140.5331  142.7857  162.5994 C.ar    1  UNL1        0.0060
      6 C         140.2081  143.3172  161.2349 C.ar    1  UNL1        0.0148
      7 C         141.1827  143.2022  165.0802 C.ar    1  UNL1        0.2512
      8 N         142.5362  142.7652  165.5569 N.ar    1  UNL1       -0.1058
      9 N         142.4013  142.3074  166.9789 N.ar    1  UNL1       -0.0923
     10 C         140.9644  142.4614  167.3811 C.ar    1  UNL1        0.3086
     11 O         140.2113  143.0144  166.2077 O.2     1  UNL1       -0.4048
     12 N         140.3828  142.1220  168.7215 N.pl3   1  UNL1       -0.2871
     13 H         140.4321  142.7728  169.4586 H       1  UNL1        0.1512
     14 C         139.7261  140.7910  168.9389 C.3     1  UNL1        0.0925
     15 C         139.7809  139.7436  167.8665 C.3     1  UNL1        0.0386
     16 C         138.5229  139.3169  167.1699 C.3     1  UNL1        0.0738
     17 N         138.5122  139.1447  165.6799 N.3     1  UNL1       -0.2726
     18 C         138.1182  140.2901  164.7952 C.3     1  UNL1        0.0721
     19 C         138.1075  140.1179  163.3052 C.3     1  UNL1        0.0174
     20 C         138.4908  138.8002  162.6998 C.3     1  UNL1        0.0029
     21 C         138.8849  137.6547  163.5844 C.3     1  UNL1        0.0174
     22 C         138.8956  137.8269  165.0745 C.3     1  UNL1        0.0721
     23 O         142.3512  144.9705  158.8949 O.2     1  UNL1       -0.2698
     24 C         140.9544  145.4149  158.5762 C.2     1  UNL1        0.2495
     25 N         139.8827  145.3279  159.6221 N.am    1  UNL1       -0.2804
     26 H         138.9660  145.6196  159.4129 H       1  UNL1        0.1552
     27 C         140.6294  145.9464  157.2117 C.ar    1  UNL1        0.0537
     28 C         139.5171  146.9376  157.0382 C.ar    1  UNL1        0.0045
     29 C         139.1921  147.4690  155.6736 C.ar    1  UNL1        0.0001
     30 C         139.9795  147.0091  154.4826 C.ar    1  UNL1        0.0000
     31 C         141.0918  146.0179  154.6561 C.ar    1  UNL1        0.0001
     32 C         141.4168  145.4865  156.0206 C.ar    1  UNL1        0.0045
@<TRIPOS>BOND
     1    23    24    2
     2    24    25   am
     3    25     1    1
     4     1     2   ar
     5     2     3   ar
     6     3     4   ar
     7     4     7    1
     8     7     8   ar
     9     8     9   ar
    10     9    10   ar
    11    10    12    1
    12    12    14    1
    13    14    15    1
    14    15    16    1
    15    16    17    1
    16    17    18    1
    17    18    19    1
    18    19    20    1
    19    20    21    1
    20    21    22    1
    21    10    11   ar
    22     4     5   ar
    23     5     6   ar
    24    24    27    1
    25    27    28   ar
    26    28    29   ar
    27    29    30   ar
    28    30    31   ar
    29    31    32   ar
    30     6     1   ar
    31    32    27   ar
    32    11     7   ar
    33    22    17    1
    34    25    26    1
    35    12    13    1
@<TRIPOS>MOLECULE
*****
 32 35 0 0 0
SMALL
GASTEIGER

@<TRIPOS>ATOM
      1 C         142.0639  138.4046  162.9451 C.ar    1  UNL1        0.0505
      2 C         140.9298  138.4197  161.9634 C.ar    1  UNL1        0.0148
      3 C         141.2125  138.3933  160.4906 C.ar    1  UNL1        0.0060
      4 C         142.6292  138.3520  159.9994 C.ar    1  UNL1        0.0553
      5 C         143.7632  138.3369  160.9811 C.ar    1  UNL1        0.0060
      6 C         143.4806  138.3632  162.4539 C.ar    1  UNL1        0.0148
      7 C         142.9119  138.3257  158.5265 C.ar    1  UNL1        0.2512
      8 N         143.1237  139.5228  157.6478 N.ar    1  UNL1       -0.1058
      9 N         143.3750  139.0347  156.2519 N.ar    1  UNL1       -0.0923
     10 C         143.3186  137.5358  156.2679 C.ar    1  UNL1        0.3086
     11 O         143.0324  137.0976  157.6736 O.2     1  UNL1       -0.4048
     12 N         143.5141  136.6335  155.0856 N.pl3   1  UNL1       -0.2871
     13 H         144.4187  136.4775  154.7297 H       1  UNL1        0.1512
     14 C         142.3315  135.9689  154.4457 C.3     1  UNL1        0.0925
     15 C         141.4534  135.0603  155.2540 C.3     1  UNL1        0.0386
     16 C         141.7115  133.5827  155.2651 C.3     1  UNL1        0.0738
     17 N         142.9206  133.0378  155.9658 N.3     1  UNL1       -0.2726
     18 C         143.6914  131.9030  155.3589 C.3     1  UNL1        0.0721
     19 C         144.9005  131.3581  156.0596 C.3     1  UNL1        0.0174
     20 C         145.3389  131.9479  157.3672 C.3     1  UNL1        0.0029
     21 C         144.5682  133.0826  157.9741 C.3     1  UNL1        0.0174
     22 C         143.3590  133.6276  157.2734 C.3     1  UNL1        0.0721
     23 O         142.1431  141.0035  164.4416 O.2     1  UNL1       -0.2698
     24 C         141.8209  139.7303  165.1663 C.2     1  UNL1        0.2495
     25 N         141.7812  138.4309  164.4181 N.am    1  UNL1       -0.2804
     26 H         141.5697  137.5953  164.8937 H       1  UNL1        0.1552
     27 C         141.5382  139.7566  166.6392 C.ar    1  UNL1        0.0537
     28 C         140.1548  140.0617  167.1321 C.ar    1  UNL1        0.0045
     29 C         139.8722  140.0880  168.6049 C.ar    1  UNL1        0.0001
     30 C         140.9730  139.8092  169.5849 C.ar    1  UNL1        0.0000
     31 C         142.3565  139.5042  169.0921 C.ar    1  UNL1        0.0001
     32 C         142.6391  139.4779  167.6192 C.ar    1  UNL1        0.0045
@<TRIPOS>BOND
     1    23    24    2
     2    24    25   am
     3    25     1    1
     4     1     2   ar
     5     2     3   ar
     6     3     4   ar
     7     4     7    1
     8     7     8   ar
     9     8     9   ar
    10     9    10   ar
    11    10    12    1
    12    12    14    1
    13    14    15    1
    14    15    16    1
    15    16    17    1
    16    17    18    1
    17    18    19    1
    18    19    20    1
    19    20    21    1
    20    21    22    1
    21    10    11   ar
    22     4     5   ar
    23     5     6   ar
    24    24    27    1
    25    27    28   ar
    26    28    29   ar
    27    29    30   ar
    28    30    31   ar
    29    31    32   ar
    30     6     1   ar
    31    32    27   ar
    32    11     7   ar
    33    22    17    1
    34    25    26    1
    35    12    13    1
@<TRIPOS>MOLECULE
*****
 32 35 0 0 0
SMALL
GASTEIGER

@<TRIPOS>ATOM
      1 C         142.6477  143.1808  170.4937 C.ar    1  UNL1        0.0505
      2 C         141.3372  143.7202  170.0020 C.ar    1  UNL1        0.0148
      3 C         140.4020  142.8336  169.2343 C.ar    1  UNL1        0.0060
      4 C         140.7772  141.4078  168.9584 C.ar    1  UNL1        0.0553
      5 C         142.0877  140.8684  169.4501 C.ar    1  UNL1        0.0060
      6 C         143.0229  141.7550  170.2178 C.ar    1  UNL1        0.0148
      7 C         139.8420  140.5212  168.1906 C.ar    1  UNL1        0.2512
      8 N         138.8172  139.5988  168.7815 N.ar    1  UNL1       -0.1058
      9 N         138.1091  138.9090  167.6534 N.ar    1  UNL1       -0.0923
     10 C         138.6963  139.4050  166.3653 C.ar    1  UNL1        0.3086
     11 O         139.7672  140.4014  166.6973 O.2     1  UNL1       -0.4048
     12 N         138.2848  138.9793  164.9870 N.pl3   1  UNL1       -0.2871
     13 H         137.7216  139.5704  164.4369 H       1  UNL1        0.1512
     14 C         138.7313  137.6530  164.4471 C.3     1  UNL1        0.0925
     15 C         139.6151  137.5951  163.2365 C.3     1  UNL1        0.0386
     16 C         141.1062  137.5695  163.3970 C.3     1  UNL1        0.0738
     17 N         141.7923  138.6329  164.2021 N.3     1  UNL1       -0.2726
     18 C         142.5254  138.2666  165.4585 C.3     1  UNL1        0.0721
     19 C         143.2115  139.3300  166.2637 C.3     1  UNL1        0.0174
     20 C         143.1645  140.7598  165.8126 C.3     1  UNL1        0.0029
     21 C         142.4314  141.1261  164.5563 C.3     1  UNL1        0.0174
     22 C         141.7453  140.0626  163.7511 C.3     1  UNL1        0.0721
     23 O         145.5514  143.3003  169.7493 O.2     1  UNL1       -0.2698
     24 C         145.0348  144.1271  170.8892 C.2     1  UNL1        0.2495
     25 N         143.5830  144.0674  171.2615 N.am    1  UNL1       -0.2804
     26 H         143.2439  144.6101  172.0097 H       1  UNL1        0.1552
     27 C         145.9701  145.0137  171.6570 C.ar    1  UNL1        0.0537
     28 C         147.2327  144.4485  172.2368 C.ar    1  UNL1        0.0045
     29 C         148.1679  145.3350  173.0045 C.ar    1  UNL1        0.0001
     30 C         147.8405  146.7867  173.1923 C.ar    1  UNL1        0.0000
     31 C         146.5779  147.3519  172.6124 C.ar    1  UNL1        0.0001
     32 C         145.6427  146.4654  171.8448 C.ar    1  UNL1        0.0045
@<TRIPOS>BOND
     1    23    24    2
     2    24    25   am
     3    25     1    1
     4     1     2   ar
     5     2     3   ar
     6     3     4   ar
     7     4     7    1
     8     7     8   ar
     9     8     9   ar
    10     9    10   ar
    11    10    12    1
    12    12    14    1
    13    14    15    1
    14    15    16    1
    15    16    17    1
    16    17    18    1
    17    18    19    1
    18    19    20    1
    19    20    21    1
    20    21    22    1
    21    10    11   ar
    22     4     5   ar
    23     5     6   ar
    24    24    27    1
    25    27    28   ar
    26    28    29   ar
    27    29    30   ar
    28    30    31   ar
    29    31    32   ar
    30     6     1   ar
    31    32    27   ar
    32    11     7   ar
    33    22    17    1
    34    25    26    1
    35    12    13    1
@<TRIPOS>MOLECULE
*****
 32 35 0 0 0
SMALL
GASTEIGER

@<TRIPOS>ATOM
      1 C         142.5627  143.0554  170.5184 C.ar    1  UNL1        0.0505
      2 C         142.9208  141.6111  170.3294 C.ar    1  UNL1        0.0148
      3 C         141.9841  140.6957  169.5982 C.ar    1  UNL1        0.0060
      4 C         140.6894  141.2246  169.0560 C.ar    1  UNL1        0.0553
      5 C         140.3313  142.6688  169.2451 C.ar    1  UNL1        0.0060
      6 C         141.2679  143.5842  169.9763 C.ar    1  UNL1        0.0148
      7 C         139.7527  140.3091  168.3248 C.ar    1  UNL1        0.2512
      8 N         138.5518  139.6262  168.9094 N.ar    1  UNL1       -0.1058
      9 N         137.9094  138.8109  167.8266 N.ar    1  UNL1       -0.0923
     10 C         138.7133  138.9898  166.5728 C.ar    1  UNL1        0.3086
     11 O         139.8525  139.9157  166.8808 O.2     1  UNL1       -0.4048
     12 N         138.4280  138.3543  165.2443 N.pl3   1  UNL1       -0.2871
     13 H         137.7882  137.6086  165.1826 H       1  UNL1        0.1512
     14 C         139.1175  138.8550  164.0099 C.3     1  UNL1        0.0925
     15 C         138.3668  139.6957  163.0202 C.3     1  UNL1        0.0386
     16 C         138.9116  141.0296  162.6033 C.3     1  UNL1        0.0738
     17 N         138.9416  142.1664  163.5814 N.3     1  UNL1       -0.2726
     18 C         137.7923  143.1280  163.6492 C.3     1  UNL1        0.0721
     19 C         137.8222  144.2648  164.6273 C.3     1  UNL1        0.0174
     20 C         139.0014  144.4401  165.5376 C.3     1  UNL1        0.0029
     21 C         140.1507  143.4786  165.4699 C.3     1  UNL1        0.0174
     22 C         140.1207  142.3417  164.4917 C.3     1  UNL1        0.0721
     23 O         145.4478  143.2069  169.7102 O.2     1  UNL1       -0.2698
     24 C         144.9419  144.0466  170.8455 C.2     1  UNL1        0.2495
     25 N         143.4994  143.9708  171.2496 N.am    1  UNL1       -0.2804
     26 H         143.1673  144.5220  171.9948 H       1  UNL1        0.1552
     27 C         145.8785  144.9621  171.5767 C.ar    1  UNL1        0.0537
     28 C         145.5539  146.4209  171.7047 C.ar    1  UNL1        0.0045
     29 C         146.4906  147.3363  172.4359 C.ar    1  UNL1        0.0001
     30 C         147.7518  146.7929  173.0391 C.ar    1  UNL1        0.0000
     31 C         148.0765  145.3341  172.9112 C.ar    1  UNL1        0.0001
     32 C         147.1398  144.4187  172.1800 C.ar    1  UNL1        0.0045
@<TRIPOS>BOND
     1    23    24    2
     2    24    25   am
     3    25     1    1
     4     1     2   ar
     5     2     3   ar
     6     3     4   ar
     7     4     7    1
     8     7     8   ar
     9     8     9   ar
    10     9    10   ar
    11    10    12    1
    12    12    14    1
    13    14    15    1
    14    15    16    1
    15    16    17    1
    16    17    18    1
    17    18    19    1
    18    19    20    1
    19    20    21    1
    20    21    22    1
    21    10    11   ar
    22     4     5   ar
    23     5     6   ar
    24    24    27    1
    25    27    28   ar
    26    28    29   ar
    27    29    30   ar
    28    30    31   ar
    29    31    32   ar
    30     6     1   ar
    31    32    27   ar
    32    11     7   ar
    33    22    17    1
    34    25    26    1
    35    12    13    1
@<TRIPOS>MOLECULE
*****
 32 35 0 0 0
SMALL
GASTEIGER

@<TRIPOS>ATOM
      1 C         139.0482  141.1700  164.4296 C.ar    1  UNL1        0.0505
      2 C         139.9688  140.5001  163.4531 C.ar    1  UNL1        0.0148
      3 C         139.7922  140.7246  161.9806 C.ar    1  UNL1        0.0060
      4 C         138.6948  141.6189  161.4845 C.ar    1  UNL1        0.0553
      5 C         137.7742  142.2888  162.4610 C.ar    1  UNL1        0.0060
      6 C         137.9508  142.0643  163.9336 C.ar    1  UNL1        0.0148
      7 C         138.5182  141.8434  160.0119 C.ar    1  UNL1        0.2512
      8 N         137.9671  140.8533  159.0290 N.ar    1  UNL1       -0.1058
      9 N         137.9699  141.4953  157.6734 N.ar    1  UNL1       -0.0923
     10 C         138.5228  142.8822  157.8184 C.ar    1  UNL1        0.3086
     11 O         138.8616  143.0973  159.2637 O.2     1  UNL1       -0.4048
     12 N         138.7048  143.8789  156.7124 N.pl3   1  UNL1       -0.2871
     13 H         137.9887  144.0164  156.0509 H       1  UNL1        0.1512
     14 C         139.9778  144.6661  156.6141 C.3     1  UNL1        0.0925
     15 C         140.3210  145.6723  157.6724 C.3     1  UNL1        0.0386
     16 C         141.4754  145.4238  158.5974 C.3     1  UNL1        0.0738
     17 N         141.2254  145.1330  160.0475 N.3     1  UNL1       -0.2726
     18 C         142.0422  144.0931  160.7557 C.3     1  UNL1        0.0721
     19 C         141.7922  143.8023  162.2057 C.3     1  UNL1        0.0174
     20 C         140.7253  144.5514  162.9478 C.3     1  UNL1        0.0029
     21 C         139.9085  145.5912  162.2397 C.3     1  UNL1        0.0174
     22 C         140.1585  145.8820  160.7895 C.3     1  UNL1        0.0721
     23 O         140.9569  142.8801  165.9893 O.2     1  UNL1       -0.2698
     24 C         140.1791  141.8006  166.6820 C.2     1  UNL1        0.2495
     25 N         139.2248  140.9455  165.9022 N.am    1  UNL1       -0.2804
     26 H         138.7144  140.2370  166.3568 H       1  UNL1        0.1552
     27 C         140.3558  141.5761  168.1546 C.ar    1  UNL1        0.0537
     28 C         140.3505  142.7430  169.0971 C.ar    1  UNL1        0.0045
     29 C         140.5271  142.5185  170.5696 C.ar    1  UNL1        0.0001
     30 C         140.7091  141.1271  171.0996 C.ar    1  UNL1        0.0000
     31 C         140.7144  139.9602  170.1572 C.ar    1  UNL1        0.0001
     32 C         140.5377  140.1847  168.6847 C.ar    1  UNL1        0.0045
@<TRIPOS>BOND
     1    23    24    2
     2    24    25   am
     3    25     1    1
     4     1     2   ar
     5     2     3   ar
     6     3     4   ar
     7     4     7    1
     8     7     8   ar
     9     8     9   ar
    10     9    10   ar
    11    10    12    1
    12    12    14    1
    13    14    15    1
    14    15    16    1
    15    16    17    1
    16    17    18    1
    17    18    19    1
    18    19    20    1
    19    20    21    1
    20    21    22    1
    21    10    11   ar
    22     4     5   ar
    23     5     6   ar
    24    24    27    1
    25    27    28   ar
    26    28    29   ar
    27    29    30   ar
    28    30    31   ar
    29    31    32   ar
    30     6     1   ar
    31    32    27   ar
    32    11     7   ar
    33    22    17    1
    34    25    26    1
    35    12    13    1
@<TRIPOS>MOLECULE
*****
 32 35 0 0 0
SMALL
GASTEIGER

@<TRIPOS>ATOM
      1 C         140.0917  143.5050  164.1043 C.ar    1  UNL1        0.0505
      2 C         140.5062  144.9231  163.8449 C.ar    1  UNL1        0.0148
      3 C         140.8705  145.3557  162.4557 C.ar    1  UNL1        0.0060
      4 C         140.8203  144.3704  161.3258 C.ar    1  UNL1        0.0553
      5 C         140.4058  142.9523  161.5852 C.ar    1  UNL1        0.0060
      6 C         140.0415  142.5197  162.9745 C.ar    1  UNL1        0.0148
      7 C         141.1846  144.8031  159.9365 C.ar    1  UNL1        0.2512
      8 N         142.5144  144.6046  159.2715 N.ar    1  UNL1       -0.1058
      9 N         142.4348  145.1891  157.8923 N.ar    1  UNL1       -0.0923
     10 C         141.0557  145.7488  157.7051 C.ar    1  UNL1        0.3086
     11 O         140.2831  145.5103  158.9684 O.2     1  UNL1       -0.4048
     12 N         140.5399  146.4279  156.4710 N.pl3   1  UNL1       -0.2871
     13 H         141.0272  146.3393  155.6202 H       1  UNL1        0.1512
     14 C         139.2816  147.2421  156.5333 C.3     1  UNL1        0.0925
     15 C         138.7951  147.9654  155.3126 C.3     1  UNL1        0.0386
     16 C         139.7287  148.8543  154.5456 C.3     1  UNL1        0.0738
     17 N         139.3089  150.2478  154.1828 N.3     1  UNL1       -0.2726
     18 C         139.4192  150.7187  152.7629 C.3     1  UNL1        0.0721
     19 C         138.9994  152.1122  152.4001 C.3     1  UNL1        0.0174
     20 C         138.4693  153.0350  153.4571 C.3     1  UNL1        0.0029
     21 C         138.3590  152.5642  154.8770 C.3     1  UNL1        0.0174
     22 C         138.7788  151.1706  155.2399 C.3     1  UNL1        0.0721
     23 O         142.2198  142.5187  165.9748 O.2     1  UNL1       -0.2698
     24 C         140.7915  142.5792  166.4288 C.2     1  UNL1        0.2495
     25 N         139.7274  143.0723  165.4936 N.am    1  UNL1       -0.2804
     26 H         138.7900  143.1120  165.7916 H       1  UNL1        0.1552
     27 C         140.4272  142.1464  167.8181 C.ar    1  UNL1        0.0537
     28 C         140.1242  140.7045  168.0994 C.ar    1  UNL1        0.0045
     29 C         139.7600  140.2719  169.4886 C.ar    1  UNL1        0.0001
     30 C         139.6986  141.2811  170.5966 C.ar    1  UNL1        0.0000
     31 C         140.0015  142.7230  170.3154 C.ar    1  UNL1        0.0001
     32 C         140.3658  143.1556  168.9261 C.ar    1  UNL1        0.0045
@<TRIPOS>BOND
     1    23    24    2
     2    24    25   am
     3    25     1    1
     4     1     2   ar
     5     2     3   ar
     6     3     4   ar
     7     4     7    1
     8     7     8   ar
     9     8     9   ar
    10     9    10   ar
    11    10    12    1
    12    12    14    1
    13    14    15    1
    14    15    16    1
    15    16    17    1
    16    17    18    1
    17    18    19    1
    18    19    20    1
    19    20    21    1
    20    21    22    1
    21    10    11   ar
    22     4     5   ar
    23     5     6   ar
    24    24    27    1
    25    27    28   ar
    26    28    29   ar
    27    29    30   ar
    28    30    31   ar
    29    31    32   ar
    30     6     1   ar
    31    32    27   ar
    32    11     7   ar
    33    22    17    1
    34    25    26    1
    35    12    13    1
@<TRIPOS>MOLECULE
*****
 32 35 0 0 0
SMALL
GASTEIGER

@<TRIPOS>ATOM
      1 C         138.9422  140.4308  163.8907 C.ar    1  UNL1        0.0505
      2 C         138.8851  138.9800  163.5144 C.ar    1  UNL1        0.0148
      3 C         138.9368  138.5771  162.0705 C.ar    1  UNL1        0.0060
      4 C         139.0456  139.6251  161.0028 C.ar    1  UNL1        0.0553
      5 C         139.1028  141.0759  161.3791 C.ar    1  UNL1        0.0060
      6 C         139.0511  141.4788  162.8230 C.ar    1  UNL1        0.0148
      7 C         139.0973  139.2221  159.5588 C.ar    1  UNL1        0.2512
      8 N         138.4556  139.9520  158.4163 N.ar    1  UNL1       -0.1058
      9 N         138.7614  139.1996  157.1552 N.ar    1  UNL1       -0.0923
     10 C         139.5922  138.0046  157.5184 C.ar    1  UNL1        0.3086
     11 O         139.7997  138.0185  159.0039 O.2     1  UNL1       -0.4048
     12 N         140.1223  136.9762  156.5637 N.pl3   1  UNL1       -0.2871
     13 H         139.5430  136.2394  156.2623 H       1  UNL1        0.1512
     14 C         141.5350  137.0703  156.0683 C.3     1  UNL1        0.0925
     15 C         142.6744  137.0542  157.0437 C.3     1  UNL1        0.0386
     16 C         143.2273  138.3444  157.5725 C.3     1  UNL1        0.0738
     17 N         143.0464  138.7015  159.0180 N.3     1  UNL1       -0.2726
     18 C         143.0081  137.6214  160.0583 C.3     1  UNL1        0.0721
     19 C         142.8271  137.9785  161.5038 C.3     1  UNL1        0.0174
     20 C         142.6845  139.4155  161.9093 C.3     1  UNL1        0.0029
     21 C         142.7228  140.4956  160.8691 C.3     1  UNL1        0.0174
     22 C         142.9037  140.1386  159.4235 C.3     1  UNL1        0.0721
     23 O         141.4870  140.8459  165.4242 O.2     1  UNL1       -0.2698
     24 C         140.1629  141.0413  166.1014 C.2     1  UNL1        0.2495
     25 N         138.8906  140.8338  165.3347 N.am    1  UNL1       -0.2804
     26 H         138.0215  140.9621  165.7791 H       1  UNL1        0.1552
     27 C         140.1113  141.4443  167.5454 C.ar    1  UNL1        0.0537
     28 C         140.6105  142.7949  167.9655 C.ar    1  UNL1        0.0045
     29 C         140.5588  143.1978  169.4094 C.ar    1  UNL1        0.0001
     30 C         140.0079  142.2501  170.4332 C.ar    1  UNL1        0.0000
     31 C         139.5086  140.8994  170.0132 C.ar    1  UNL1        0.0001
     32 C         139.5603  140.4965  168.5692 C.ar    1  UNL1        0.0045
@<TRIPOS>BOND
     1    23    24    2
     2    24    25   am
     3    25     1    1
     4     1     2   ar
     5     2     3   ar
     6     3     4   ar
     7     4     7    1
     8     7     8   ar
     9     8     9   ar
    10     9    10   ar
    11    10    12    1
    12    12    14    1
    13    14    15    1
    14    15    16    1
    15    16    17    1
    16    17    18    1
    17    18    19    1
    18    19    20    1
    19    20    21    1
    20    21    22    1
    21    10    11   ar
    22     4     5   ar
    23     5     6   ar
    24    24    27    1
    25    27    28   ar
    26    28    29   ar
    27    29    30   ar
    28    30    31   ar
    29    31    32   ar
    30     6     1   ar
    31    32    27   ar
    32    11     7   ar
    33    22    17    1
    34    25    26    1
    35    12    13    1
@<TRIPOS>MOLECULE
*****
 32 35 0 0 0
SMALL
GASTEIGER

@<TRIPOS>ATOM
      1 C         140.4013  142.1643  162.4046 C.ar    1  UNL1        0.0505
      2 C         140.2179  143.0511  163.6004 C.ar    1  UNL1        0.0148
      3 C         139.8088  142.4599  164.9169 C.ar    1  UNL1        0.0060
      4 C         139.5832  140.9819  165.0376 C.ar    1  UNL1        0.0553
      5 C         139.7666  140.0951  163.8418 C.ar    1  UNL1        0.0060
      6 C         140.1757  140.6863  162.5254 C.ar    1  UNL1        0.0148
      7 C         139.1741  140.3907  166.3541 C.ar    1  UNL1        0.2512
      8 N         138.2883  139.1956  166.5468 N.ar    1  UNL1       -0.1058
      9 N         138.1457  138.9571  168.0208 N.ar    1  UNL1       -0.0923
     10 C         138.9434  140.0048  168.7391 C.ar    1  UNL1        0.3086
     11 O         139.5790  140.8908  167.7091 O.2     1  UNL1       -0.4048
     12 N         139.0813  140.1424  170.2265 N.pl3   1  UNL1       -0.2871
     13 H         138.2954  140.3674  170.7750 H       1  UNL1        0.1512
     14 C         140.4167  139.9371  170.8780 C.3     1  UNL1        0.0925
     15 C         141.6583  140.4731  170.2290 C.3     1  UNL1        0.0386
     16 C         142.4423  139.6117  169.2840 C.3     1  UNL1        0.0738
     17 N         142.7408  140.0988  167.8971 N.3     1  UNL1       -0.2726
     18 C         142.8918  139.1167  166.7734 C.3     1  UNL1        0.0721
     19 C         143.1903  139.6039  165.3866 C.3     1  UNL1        0.0174
     20 C         143.3378  141.0732  165.1233 C.3     1  UNL1        0.0029
     21 C         143.1868  142.0553  166.2469 C.3     1  UNL1        0.0174
     22 C         142.8883  141.5681  167.6339 C.3     1  UNL1        0.0721
     23 O         138.3347  143.3692  160.5944 O.2     1  UNL1       -0.2698
     24 C         139.7771  143.3579  160.1830 C.2     1  UNL1        0.2495
     25 N         140.8104  142.7555  161.0881 N.am    1  UNL1       -0.2804
     26 H         141.7572  142.7481  160.8181 H       1  UNL1        0.1552
     27 C         140.1862  143.9491  158.8665 C.ar    1  UNL1        0.0537
     28 C         140.4039  143.0582  157.6795 C.ar    1  UNL1        0.0045
     29 C         140.8130  143.6494  156.3631 C.ar    1  UNL1        0.0001
     30 C         141.0043  145.1315  156.2335 C.ar    1  UNL1        0.0000
     31 C         140.7866  146.0224  157.4205 C.ar    1  UNL1        0.0001
     32 C         140.3776  145.4312  158.7369 C.ar    1  UNL1        0.0045
@<TRIPOS>BOND
     1    23    24    2
     2    24    25   am
     3    25     1    1
     4     1     2   ar
     5     2     3   ar
     6     3     4   ar
     7     4     7    1
     8     7     8   ar
     9     8     9   ar
    10     9    10   ar
    11    10    12    1
    12    12    14    1
    13    14    15    1
    14    15    16    1
    15    16    17    1
    16    17    18    1
    17    18    19    1
    18    19    20    1
    19    20    21    1
    20    21    22    1
    21    10    11   ar
    22     4     5   ar
    23     5     6   ar
    24    24    27    1
    25    27    28   ar
    26    28    29   ar
    27    29    30   ar
    28    30    31   ar
    29    31    32   ar
    30     6     1   ar
    31    32    27   ar
    32    11     7   ar
    33    22    17    1
    34    25    26    1
    35    12    13    1
