@<TRIPOS>MOLECULE
*****
 39 42 0 0 0
SMALL
GASTEIGER

@<TRIPOS>ATOM
      1 N         143.0899  139.6166  161.0271 N.3     1  UNL1       -0.2711
      2 C         143.2279  139.9430  159.5696 C.3     1  UNL1        0.0933
      3 C         142.9607  138.5083  159.2230 C.3     1  UNL1        0.1035
      4 C         142.8226  138.1819  160.6805 C.3     1  UNL1        0.0933
      5 C         143.3641  141.9680  164.8540 C.3     1  UNL1        0.1085
      6 O         144.2968  142.9050  165.5626 O.3     1  UNL1       -0.3826
      7 C         142.1561  141.1227  164.5781 C.3     1  UNL1        0.0326
      8 C         142.0647  140.3388  163.3025 C.3     1  UNL1        0.0187
      9 C         143.1812  140.4004  162.3027 C.3     1  UNL1        0.0578
     10 C         144.3892  141.2457  162.5786 C.3     1  UNL1        0.0187
     11 C         144.4806  142.0296  163.8543 C.3     1  UNL1        0.0326
     12 H         143.9069  143.1696  166.4104 H       1  UNL1        0.2107
     13 C         140.9862  142.7597  168.5915 C.ar    1  UNL1        0.1491
     14 C         142.4413  142.4084  168.6886 C.ar    1  UNL1        0.0294
     15 C         143.2339  142.1446  167.4428 C.ar    1  UNL1        0.0018
     16 C         142.5715  142.2319  166.0998 C.ar    1  UNL1        0.0209
     17 C         141.1165  142.5832  166.0027 C.ar    1  UNL1        0.0976
     18 N         140.3238  142.8471  167.2486 N.ar    1  UNL1       -0.2338
     19 N         139.4010  143.2875  171.0832 N.1     1  UNL1       -0.1893
     20 C         140.1936  143.0236  169.8373 C.1     1  UNL1        0.1198
     21 N         142.8693  137.7245  157.9472 N.am    1  UNL1       -0.3018
     22 C         141.5534  137.5954  157.2390 C.2     1  UNL1        0.2426
     23 O         140.3289  138.2499  157.8064 O.2     1  UNL1       -0.2733
     24 H         143.6731  137.2949  157.5748 H       1  UNL1        0.1495
     25 C         141.4621  136.8116  155.9632 C.3     1  UNL1        0.1759
     26 N         141.4372  135.3124  156.0042 N.am    1  UNL1       -0.2931
     27 C         142.7195  134.5442  156.1289 C.2     1  UNL1        0.2462
     28 O         144.0266  135.2752  156.2126 O.2     1  UNL1       -0.2701
     29 H         140.5793  134.8326  155.9493 H       1  UNL1        0.1502
     30 C         142.6947  133.0449  156.1699 C.ar    1  UNL1        0.0533
     31 C         141.7315  132.2869  155.3053 C.ar    1  UNL1        0.0045
     32 C         141.7067  130.7877  155.3463 C.ar    1  UNL1        0.0001
     33 C         142.6450  130.0465  156.2520 C.ar    1  UNL1        0.0039
     34 C         143.6082  130.8045  157.1166 C.ar    1  UNL1        0.0716
     35 C         143.6330  132.3038  157.0756 C.ar    1  UNL1        0.0084
     36 C         144.5465  130.0634  158.0223 C.3     1  UNL1        0.4186
     37 F         145.4848  129.3223  158.9280 F       1  UNL1       -0.1659
     38 F         143.8198  128.7845  157.7286 F       1  UNL1       -0.1659
     39 F         145.2732  131.3423  158.3160 F       1  UNL1       -0.1659
@<TRIPOS>BOND
     1    19    20    3
     2    20    13    1
     3    13    14   ar
     4    14    15   ar
     5    15    16   ar
     6    16     5    1
     7     5     6    1
     8     5     7    1
     9     7     8    1
    10     8     9    1
    11     9     1    1
    12     1     2    1
    13     2     3    1
    14     3    21    1
    15    21    22   am
    16    22    23    2
    17    22    25    1
    18    25    26    1
    19    26    27   am
    20    27    28    2
    21    27    30    1
    22    30    31   ar
    23    31    32   ar
    24    32    33   ar
    25    33    34   ar
    26    34    36    1
    27    36    37    1
    28    36    38    1
    29    36    39    1
    30    34    35   ar
    31     3     4    1
    32     9    10    1
    33    10    11    1
    34    16    17   ar
    35    17    18   ar
    36    18    13   ar
    37    11     5    1
    38     4     1    1
    39    35    30   ar
    40     6    12    1
    41    21    24    1
    42    26    29    1
@<TRIPOS>MOLECULE
*****
 39 42 0 0 0
SMALL
GASTEIGER

@<TRIPOS>ATOM
      1 N         143.4364  140.4447  161.0234 N.3     1  UNL1       -0.2711
      2 C         143.8903  139.1282  160.4659 C.3     1  UNL1        0.0933
      3 C         143.3913  139.5305  159.1098 C.3     1  UNL1        0.1035
      4 C         142.9374  140.8470  159.6673 C.3     1  UNL1        0.0933
      5 C         143.5324  142.3839  165.0830 C.3     1  UNL1        0.1085
      6 O         144.4155  143.2667  165.9142 O.3     1  UNL1       -0.3826
      7 C         142.3597  141.5383  164.6833 C.3     1  UNL1        0.0326
      8 C         142.3277  140.8919  163.3301 C.3     1  UNL1        0.0187
      9 C         143.4684  141.0910  162.3766 C.3     1  UNL1        0.0578
     10 C         144.6411  141.9366  162.7763 C.3     1  UNL1        0.0187
     11 C         144.6731  142.5830  164.1296 C.3     1  UNL1        0.0326
     12 H         143.9945  143.4286  166.7729 H       1  UNL1        0.2107
     13 C         141.0303  142.7063  168.8093 C.ar    1  UNL1        0.1491
     14 C         140.3898  142.8522  167.4609 C.ar    1  UNL1        0.0294
     15 C         141.2238  142.7447  166.2188 C.ar    1  UNL1        0.0018
     16 C         142.6984  142.4913  166.3251 C.ar    1  UNL1        0.0209
     17 C         143.3389  142.3454  167.6736 C.ar    1  UNL1        0.0976
     18 N         142.5049  142.4529  168.9157 N.ar    1  UNL1       -0.2338
     19 N         139.3622  142.9213  171.2936 N.1     1  UNL1       -0.1893
     20 C         140.1963  142.8138  170.0515 C.1     1  UNL1        0.1198
     21 N         143.3594  138.8840  157.7565 N.am    1  UNL1       -0.3018
     22 C         144.2751  139.3690  156.6720 C.2     1  UNL1        0.2426
     23 O         145.2227  140.5003  156.9405 O.2     1  UNL1       -0.2733
     24 H         142.7375  138.1415  157.5803 H       1  UNL1        0.1495
     25 C         144.2432  138.7225  155.3187 C.3     1  UNL1        0.1759
     26 N         144.3571  137.2319  155.1968 N.am    1  UNL1       -0.2931
     27 C         143.1548  136.3661  155.4314 C.2     1  UNL1        0.2462
     28 O         141.8387  136.9912  155.7879 O.2     1  UNL1       -0.2701
     29 H         145.2210  136.8217  154.9629 H       1  UNL1        0.1502
     30 C         143.2687  134.8754  155.3095 C.ar    1  UNL1        0.0533
     31 C         142.6374  134.1676  154.1476 C.ar    1  UNL1        0.0045
     32 C         142.7513  132.6769  154.0256 C.ar    1  UNL1        0.0001
     33 C         143.4966  131.8941  155.0658 C.ar    1  UNL1        0.0039
     34 C         144.1279  132.6020  156.2277 C.ar    1  UNL1        0.0716
     35 C         144.0140  134.0927  156.3497 C.ar    1  UNL1        0.0084
     36 C         144.8732  131.8192  157.2679 C.3     1  UNL1        0.4186
     37 F         145.6185  131.0365  158.3079 F       1  UNL1       -0.1659
     38 F         144.7150  132.9544  158.2355 F       1  UNL1       -0.1659
     39 F         145.0314  130.6840  156.3002 F       1  UNL1       -0.1659
@<TRIPOS>BOND
     1    19    20    3
     2    20    13    1
     3    13    14   ar
     4    14    15   ar
     5    15    16   ar
     6    16     5    1
     7     5     6    1
     8     5     7    1
     9     7     8    1
    10     8     9    1
    11     9     1    1
    12     1     2    1
    13     2     3    1
    14     3    21    1
    15    21    22   am
    16    22    23    2
    17    22    25    1
    18    25    26    1
    19    26    27   am
    20    27    28    2
    21    27    30    1
    22    30    31   ar
    23    31    32   ar
    24    32    33   ar
    25    33    34   ar
    26    34    36    1
    27    36    37    1
    28    36    38    1
    29    36    39    1
    30    34    35   ar
    31     3     4    1
    32     9    10    1
    33    10    11    1
    34    16    17   ar
    35    17    18   ar
    36    18    13   ar
    37    11     5    1
    38     4     1    1
    39    35    30   ar
    40     6    12    1
    41    21    24    1
    42    26    29    1
@<TRIPOS>MOLECULE
*****
 39 42 0 0 0
SMALL
GASTEIGER

@<TRIPOS>ATOM
      1 N         139.1288  139.6341  160.8883 N.3     1  UNL1       -0.2711
      2 C         137.7240  140.0111  160.5218 C.3     1  UNL1        0.0933
      3 C         138.1046  140.0192  159.0709 C.3     1  UNL1        0.1035
      4 C         139.5095  139.6422  159.4374 C.3     1  UNL1        0.0933
      5 C         141.3012  138.8169  164.7435 C.3     1  UNL1        0.1085
      6 O         142.3727  137.9213  165.2911 O.3     1  UNL1       -0.3826
      7 C         140.2429  139.8785  164.6895 C.3     1  UNL1        0.0326
      8 C         139.5187  140.1509  163.4044 C.3     1  UNL1        0.0187
      9 C         139.8529  139.3617  162.1734 C.3     1  UNL1        0.0578
     10 C         140.9112  138.3001  162.2274 C.3     1  UNL1        0.0187
     11 C         141.6353  138.0277  163.5125 C.3     1  UNL1        0.0326
     12 H         142.5119  138.1206  166.2302 H       1  UNL1        0.2107
     13 C         141.4150  140.2515  169.0072 C.ar    1  UNL1        0.1491
     14 C         142.6822  139.8322  168.3228 C.ar    1  UNL1        0.0294
     15 C         142.6443  139.3540  166.9016 C.ar    1  UNL1        0.0018
     16 C         141.3391  139.2951  166.1647 C.ar    1  UNL1        0.0209
     17 C         140.0719  139.7143  166.8491 C.ar    1  UNL1        0.0976
     18 N         140.1099  140.1925  168.2703 N.ar    1  UNL1       -0.2338
     19 N         141.4909  141.2079  171.8496 N.1     1  UNL1       -0.1893
     20 C         141.4530  140.7297  170.4284 C.1     1  UNL1        0.1198
     21 N         137.3805  140.2916  157.7858 N.am    1  UNL1       -0.3018
     22 C         137.3765  141.6749  157.2058 C.2     1  UNL1        0.2426
     23 O         138.0967  142.7858  157.9109 O.2     1  UNL1       -0.2733
     24 H         136.9077  139.5625  157.3231 H       1  UNL1        0.1495
     25 C         136.6524  141.9473  155.9207 C.3     1  UNL1        0.1759
     26 N         135.1527  141.9473  155.8904 N.am    1  UNL1       -0.2931
     27 C         134.4025  140.6483  155.8903 C.2     1  UNL1        0.2462
     28 O         135.1521  139.3494  155.9205 O.2     1  UNL1       -0.2701
     29 H         134.6607  142.7999  155.8706 H       1  UNL1        0.1502
     30 C         132.9028  140.6483  155.8600 C.ar    1  UNL1        0.0533
     31 C         132.1684  141.7005  155.0831 C.ar    1  UNL1        0.0045
     32 C         130.6687  141.7005  155.0528 C.ar    1  UNL1        0.0001
     33 C         129.9035  140.6483  155.7995 C.ar    1  UNL1        0.0039
     34 C         130.6379  139.5962  156.5763 C.ar    1  UNL1        0.0716
     35 C         132.1376  139.5962  156.6066 C.ar    1  UNL1        0.0084
     36 C         129.8727  138.5440  157.3230 C.3     1  UNL1        0.4186
     37 F         129.1075  137.4920  158.0695 F       1  UNL1       -0.1659
     38 F         130.4222  137.4929  156.4048 F       1  UNL1       -0.1659
     39 F         129.3232  139.5952  158.2412 F       1  UNL1       -0.1659
@<TRIPOS>BOND
     1    19    20    3
     2    20    13    1
     3    13    14   ar
     4    14    15   ar
     5    15    16   ar
     6    16     5    1
     7     5     6    1
     8     5     7    1
     9     7     8    1
    10     8     9    1
    11     9     1    1
    12     1     2    1
    13     2     3    1
    14     3    21    1
    15    21    22   am
    16    22    23    2
    17    22    25    1
    18    25    26    1
    19    26    27   am
    20    27    28    2
    21    27    30    1
    22    30    31   ar
    23    31    32   ar
    24    32    33   ar
    25    33    34   ar
    26    34    36    1
    27    36    37    1
    28    36    38    1
    29    36    39    1
    30    34    35   ar
    31     3     4    1
    32     9    10    1
    33    10    11    1
    34    16    17   ar
    35    17    18   ar
    36    18    13   ar
    37    11     5    1
    38     4     1    1
    39    35    30   ar
    40     6    12    1
    41    21    24    1
    42    26    29    1
@<TRIPOS>MOLECULE
*****
 39 42 0 0 0
SMALL
GASTEIGER

@<TRIPOS>ATOM
      1 N         144.5169  142.5613  158.7692 N.3     1  UNL1       -0.2711
      2 C         143.2123  143.2516  159.0362 C.3     1  UNL1        0.0933
      3 C         143.3080  142.8724  160.4843 C.3     1  UNL1        0.1035
      4 C         144.6127  142.1821  160.2173 C.3     1  UNL1        0.0933
      5 C         147.0810  141.9015  155.1305 C.3     1  UNL1        0.1085
      6 O         147.0170  141.2446  153.7835 O.3     1  UNL1       -0.3826
      7 C         147.6219  142.6695  156.2999 C.3     1  UNL1        0.0326
      8 C         146.7672  142.8895  157.5128 C.3     1  UNL1        0.0187
      9 C         145.3717  142.3414  157.5563 C.3     1  UNL1        0.0578
     10 C         144.8307  141.5734  156.3869 C.3     1  UNL1        0.0187
     11 C         145.6854  141.3534  155.1740 C.3     1  UNL1        0.0326
     12 H         147.8604  141.3717  153.3214 H       1  UNL1        0.2107
     13 C         151.2012  142.8612  153.5966 C.ar    1  UNL1        0.1491
     14 C         149.9998  143.5107  152.9762 C.ar    1  UNL1        0.0294
     15 C         148.6264  143.1908  153.4875 C.ar    1  UNL1        0.0018
     16 C         148.4544  142.2214  154.6192 C.ar    1  UNL1        0.0209
     17 C         149.6557  141.5720  155.2395 C.ar    1  UNL1        0.0976
     18 N         151.0291  141.8919  154.7282 N.ar    1  UNL1       -0.2338
     19 N         153.9480  143.5011  152.5740 N.1     1  UNL1       -0.1893
     20 C         152.5746  143.1812  153.0853 C.1     1  UNL1        0.1198
     21 N         142.4532  143.0924  161.6972 N.am    1  UNL1       -0.3018
     22 C         142.8727  144.0854  162.7403 C.2     1  UNL1        0.2426
     23 O         144.1469  144.8584  162.5706 O.2     1  UNL1       -0.2733
     24 H         141.6169  142.5850  161.8086 H       1  UNL1        0.1495
     25 C         142.0179  144.3053  163.9532 C.3     1  UNL1        0.1759
     26 N         141.5290  143.1316  164.7490 N.am    1  UNL1       -0.2931
     27 C         140.0742  142.7663  164.7300 C.2     1  UNL1        0.2462
     28 O         139.1085  143.5747  163.9153 O.2     1  UNL1       -0.2701
     29 H         142.1628  142.6010  165.2837 H       1  UNL1        0.1502
     30 C         139.5853  141.5926  165.5258 C.ar    1  UNL1        0.0533
     31 C         138.6137  140.6258  164.9166 C.ar    1  UNL1        0.0045
     32 C         138.1248  139.4520  165.7124 C.ar    1  UNL1        0.0001
     33 C         138.6075  139.2452  167.1175 C.ar    1  UNL1        0.0039
     34 C         139.5791  140.2120  167.7267 C.ar    1  UNL1        0.0716
     35 C         140.0680  141.3857  166.9309 C.ar    1  UNL1        0.0084
     36 C         140.0618  140.0051  169.1318 C.3     1  UNL1        0.4186
     37 F         140.5445  139.7983  170.5368 F       1  UNL1       -0.1659
     38 F         138.7007  140.3614  169.6518 F       1  UNL1       -0.1659
     39 F         141.4229  139.6489  168.6118 F       1  UNL1       -0.1659
@<TRIPOS>BOND
     1    19    20    3
     2    20    13    1
     3    13    14   ar
     4    14    15   ar
     5    15    16   ar
     6    16     5    1
     7     5     6    1
     8     5     7    1
     9     7     8    1
    10     8     9    1
    11     9     1    1
    12     1     2    1
    13     2     3    1
    14     3    21    1
    15    21    22   am
    16    22    23    2
    17    22    25    1
    18    25    26    1
    19    26    27   am
    20    27    28    2
    21    27    30    1
    22    30    31   ar
    23    31    32   ar
    24    32    33   ar
    25    33    34   ar
    26    34    36    1
    27    36    37    1
    28    36    38    1
    29    36    39    1
    30    34    35   ar
    31     3     4    1
    32     9    10    1
    33    10    11    1
    34    16    17   ar
    35    17    18   ar
    36    18    13   ar
    37    11     5    1
    38     4     1    1
    39    35    30   ar
    40     6    12    1
    41    21    24    1
    42    26    29    1
@<TRIPOS>MOLECULE
*****
 39 42 0 0 0
SMALL
GASTEIGER

@<TRIPOS>ATOM
      1 N         141.3782  138.9125  161.0775 N.3     1  UNL1       -0.2711
      2 C         142.4122  137.8862  160.7203 C.3     1  UNL1        0.0933
      3 C         142.4075  138.3750  159.3022 C.3     1  UNL1        0.1035
      4 C         141.3735  139.4013  159.6593 C.3     1  UNL1        0.0933
      5 C         139.1948  140.0525  164.8435 C.3     1  UNL1        0.1085
      6 O         137.7946  140.2375  165.3487 O.3     1  UNL1       -0.3826
      7 C         140.6940  140.0056  164.8308 C.3     1  UNL1        0.0326
      8 C         141.4218  139.6256  163.5754 C.3     1  UNL1        0.0187
      9 C         140.6505  139.2925  162.3328 C.3     1  UNL1        0.0578
     10 C         139.1513  139.3395  162.3455 C.3     1  UNL1        0.0187
     11 C         138.4235  139.7195  163.6009 C.3     1  UNL1        0.0326
     12 H         137.8199  140.5034  166.2812 H       1  UNL1        0.2107
     13 C         140.0502  141.2443  169.0977 C.ar    1  UNL1        0.1491
     14 C         140.4968  142.1242  167.9680 C.ar    1  UNL1        0.0294
     15 C         140.2117  141.7270  166.5500 C.ar    1  UNL1        0.0018
     16 C         139.4799  140.4498  166.2615 C.ar    1  UNL1        0.0209
     17 C         139.0333  139.5698  167.3912 C.ar    1  UNL1        0.0976
     18 N         139.3184  139.9671  168.8093 N.ar    1  UNL1       -0.2338
     19 N         140.6204  142.0388  171.9338 N.1     1  UNL1       -0.1893
     20 C         140.3353  141.6415  170.5157 C.1     1  UNL1        0.1198
     21 N         143.1353  137.9949  158.0468 N.am    1  UNL1       -0.3018
     22 C         142.3761  137.4380  156.8791 C.2     1  UNL1        0.2426
     23 O         140.8892  137.2612  156.9668 O.2     1  UNL1       -0.2733
     24 H         144.1112  138.1110  157.9892 H       1  UNL1        0.1495
     25 C         143.1039  137.0580  155.6237 C.3     1  UNL1        0.1759
     26 N         143.4802  135.6267  155.3791 N.am    1  UNL1       -0.2931
     27 C         142.4815  134.6802  154.7817 C.2     1  UNL1        0.2462
     28 O         141.1065  135.1651  154.4290 O.2     1  UNL1       -0.2701
     29 H         144.3826  135.3085  155.6106 H       1  UNL1        0.1502
     30 C         142.8578  133.2489  154.5371 C.ar    1  UNL1        0.0533
     31 C         142.6019  132.6246  153.1975 C.ar    1  UNL1        0.0045
     32 C         142.9782  131.1934  152.9528 C.ar    1  UNL1        0.0001
     33 C         143.6105  130.3864  154.0479 C.ar    1  UNL1        0.0039
     34 C         143.8664  131.0108  155.3875 C.ar    1  UNL1        0.0716
     35 C         143.4901  132.4420  155.6322 C.ar    1  UNL1        0.0084
     36 C         144.4987  130.2038  156.4826 C.3     1  UNL1        0.4186
     37 F         145.1309  129.3970  157.5776 F       1  UNL1       -0.1659
     38 F         145.2652  129.4177  155.4607 F       1  UNL1       -0.1659
     39 F         143.7321  130.9900  157.5045 F       1  UNL1       -0.1659
@<TRIPOS>BOND
     1    19    20    3
     2    20    13    1
     3    13    14   ar
     4    14    15   ar
     5    15    16   ar
     6    16     5    1
     7     5     6    1
     8     5     7    1
     9     7     8    1
    10     8     9    1
    11     9     1    1
    12     1     2    1
    13     2     3    1
    14     3    21    1
    15    21    22   am
    16    22    23    2
    17    22    25    1
    18    25    26    1
    19    26    27   am
    20    27    28    2
    21    27    30    1
    22    30    31   ar
    23    31    32   ar
    24    32    33   ar
    25    33    34   ar
    26    34    36    1
    27    36    37    1
    28    36    38    1
    29    36    39    1
    30    34    35   ar
    31     3     4    1
    32     9    10    1
    33    10    11    1
    34    16    17   ar
    35    17    18   ar
    36    18    13   ar
    37    11     5    1
    38     4     1    1
    39    35    30   ar
    40     6    12    1
    41    21    24    1
    42    26    29    1
@<TRIPOS>MOLECULE
*****
 39 42 0 0 0
SMALL
GASTEIGER

@<TRIPOS>ATOM
      1 N         142.6276  138.7862  162.2767 N.3     1  UNL1       -0.2711
      2 C         141.9356  137.8261  161.3551 C.3     1  UNL1        0.0933
      3 C         142.6859  138.4025  160.1912 C.3     1  UNL1        0.1035
      4 C         143.3779  139.3626  161.1127 C.3     1  UNL1        0.0933
      5 C         142.5036  139.5999  166.7008 C.3     1  UNL1        0.1085
      6 O         143.1710  139.1583  167.9695 O.3     1  UNL1       -0.3826
      7 C         141.5825  140.3392  165.7762 C.3     1  UNL1        0.0326
      8 C         141.6238  140.0680  164.3014 C.3     1  UNL1        0.0187
      9 C         142.5862  139.0575  163.7514 C.3     1  UNL1        0.0578
     10 C         143.5073  138.3182  164.6759 C.3     1  UNL1        0.0187
     11 C         143.4660  138.5894  166.1507 C.3     1  UNL1        0.0326
     12 H         142.7908  139.6412  168.7198 H       1  UNL1        0.2107
     13 C         140.3117  142.1713  169.6728 C.ar    1  UNL1        0.1491
     14 C         139.7561  140.8329  169.2854 C.ar    1  UNL1        0.0294
     15 C         140.4868  139.9758  168.2947 C.ar    1  UNL1        0.0018
     16 C         141.7730  140.4570  167.6914 C.ar    1  UNL1        0.0209
     17 C         142.3286  141.7953  168.0788 C.ar    1  UNL1        0.0976
     18 N         141.5979  142.6525  169.0695 N.ar    1  UNL1       -0.2338
     19 N         138.8504  143.8855  171.6542 N.1     1  UNL1       -0.1893
     20 C         139.5810  143.0284  170.6635 C.1     1  UNL1        0.1198
     21 N         142.7272  138.1312  158.7165 N.am    1  UNL1       -0.3018
     22 C         141.5508  138.4847  157.8556 C.2     1  UNL1        0.2426
     23 O         140.3331  139.1094  158.4695 O.2     1  UNL1       -0.2733
     24 H         143.5265  137.7211  158.3136 H       1  UNL1        0.1495
     25 C         141.5921  138.2133  156.3809 C.3     1  UNL1        0.1759
     26 N         141.6079  136.8001  155.8785 N.am    1  UNL1       -0.2931
     27 C         142.9059  136.0553  155.7752 C.2     1  UNL1        0.2462
     28 O         144.1880  136.7239  156.1742 O.2     1  UNL1       -0.2701
     29 H         140.7664  136.3613  155.6166 H       1  UNL1        0.1502
     30 C         142.9217  134.6420  155.2728 C.ar    1  UNL1        0.0533
     31 C         142.3658  134.3218  153.9170 C.ar    1  UNL1        0.0045
     32 C         142.3817  132.9085  153.4146 C.ar    1  UNL1        0.0001
     33 C         142.9534  131.8155  154.2681 C.ar    1  UNL1        0.0039
     34 C         143.5093  132.1358  155.6240 C.ar    1  UNL1        0.0716
     35 C         143.4935  133.5490  156.1263 C.ar    1  UNL1        0.0084
     36 C         144.0810  131.0427  156.4775 C.3     1  UNL1        0.4186
     37 F         144.6527  129.9498  157.3310 F       1  UNL1       -0.1659
     38 F         142.7553  130.8829  157.1607 F       1  UNL1       -0.1659
     39 F         145.4068  131.2026  155.7942 F       1  UNL1       -0.1659
@<TRIPOS>BOND
     1    19    20    3
     2    20    13    1
     3    13    14   ar
     4    14    15   ar
     5    15    16   ar
     6    16     5    1
     7     5     6    1
     8     5     7    1
     9     7     8    1
    10     8     9    1
    11     9     1    1
    12     1     2    1
    13     2     3    1
    14     3    21    1
    15    21    22   am
    16    22    23    2
    17    22    25    1
    18    25    26    1
    19    26    27   am
    20    27    28    2
    21    27    30    1
    22    30    31   ar
    23    31    32   ar
    24    32    33   ar
    25    33    34   ar
    26    34    36    1
    27    36    37    1
    28    36    38    1
    29    36    39    1
    30    34    35   ar
    31     3     4    1
    32     9    10    1
    33    10    11    1
    34    16    17   ar
    35    17    18   ar
    36    18    13   ar
    37    11     5    1
    38     4     1    1
    39    35    30   ar
    40     6    12    1
    41    21    24    1
    42    26    29    1
@<TRIPOS>MOLECULE
*****
 39 42 0 0 0
SMALL
GASTEIGER

@<TRIPOS>ATOM
      1 N         141.5279  139.4991  160.7791 N.3     1  UNL1       -0.2711
      2 C         141.0164  138.7899  159.5603 C.3     1  UNL1        0.0933
      3 C         142.4234  138.6192  159.0691 C.3     1  UNL1        0.1035
      4 C         142.9349  139.3284  160.2879 C.3     1  UNL1        0.0933
      5 C         139.6277  141.3657  164.4060 C.3     1  UNL1        0.1085
      6 O         138.4403  142.2032  164.7786 O.3     1  UNL1       -0.3826
      7 C         140.8904  140.5685  164.5474 C.3     1  UNL1        0.0326
      8 C         141.5238  139.9462  163.3384 C.3     1  UNL1        0.0187
      9 C         140.8945  140.1213  161.9881 C.3     1  UNL1        0.0578
     10 C         139.6319  140.9185  161.8467 C.3     1  UNL1        0.0187
     11 C         138.9984  141.5408  163.0558 C.3     1  UNL1        0.0326
     12 H         138.4464  142.3653  165.7350 H       1  UNL1        0.2107
     13 C         140.2785  141.7131  168.8452 C.ar    1  UNL1        0.1491
     14 C         139.8907  140.3943  168.2449 C.ar    1  UNL1        0.0294
     15 C         139.6737  140.2785  166.7652 C.ar    1  UNL1        0.0018
     16 C         139.8446  141.4815  165.8857 C.ar    1  UNL1        0.0209
     17 C         140.2324  142.8003  166.4860 C.ar    1  UNL1        0.0976
     18 N         140.4493  142.9161  167.9657 N.ar    1  UNL1       -0.2338
     19 N         140.7123  141.9446  171.8046 N.1     1  UNL1       -0.1893
     20 C         140.4954  141.8288  170.3249 C.1     1  UNL1        0.1198
     21 N         143.0567  137.9970  157.8600 N.am    1  UNL1       -0.3018
     22 C         143.3816  138.8428  156.6646 C.2     1  UNL1        0.2426
     23 O         143.0733  140.3106  156.6782 O.2     1  UNL1       -0.2733
     24 H         143.2591  137.0336  157.8511 H       1  UNL1        0.1495
     25 C         144.0149  138.2206  155.4555 C.3     1  UNL1        0.1759
     26 N         144.2163  136.7354  155.3948 N.am    1  UNL1       -0.2931
     27 C         143.0304  135.8206  155.3111 C.2     1  UNL1        0.2462
     28 O         141.6433  136.3911  155.2881 O.2     1  UNL1       -0.2701
     29 H         145.1267  136.3610  155.4099 H       1  UNL1        0.1502
     30 C         143.2318  134.3354  155.2504 C.ar    1  UNL1        0.0533
     31 C         142.7038  133.5540  154.0840 C.ar    1  UNL1        0.0045
     32 C         142.9051  132.0689  154.0233 C.ar    1  UNL1        0.0001
     33 C         143.6345  131.3651  155.1291 C.ar    1  UNL1        0.0039
     34 C         144.1625  132.1464  156.2955 C.ar    1  UNL1        0.0716
     35 C         143.9611  133.6316  156.3562 C.ar    1  UNL1        0.0084
     36 C         144.8918  131.4427  157.4013 C.3     1  UNL1        0.4186
     37 F         145.6211  130.7389  158.5070 F       1  UNL1       -0.1659
     38 F         145.1007  132.7543  158.0983 F       1  UNL1       -0.1659
     39 F         144.6829  130.1309  156.7043 F       1  UNL1       -0.1659
@<TRIPOS>BOND
     1    19    20    3
     2    20    13    1
     3    13    14   ar
     4    14    15   ar
     5    15    16   ar
     6    16     5    1
     7     5     6    1
     8     5     7    1
     9     7     8    1
    10     8     9    1
    11     9     1    1
    12     1     2    1
    13     2     3    1
    14     3    21    1
    15    21    22   am
    16    22    23    2
    17    22    25    1
    18    25    26    1
    19    26    27   am
    20    27    28    2
    21    27    30    1
    22    30    31   ar
    23    31    32   ar
    24    32    33   ar
    25    33    34   ar
    26    34    36    1
    27    36    37    1
    28    36    38    1
    29    36    39    1
    30    34    35   ar
    31     3     4    1
    32     9    10    1
    33    10    11    1
    34    16    17   ar
    35    17    18   ar
    36    18    13   ar
    37    11     5    1
    38     4     1    1
    39    35    30   ar
    40     6    12    1
    41    21    24    1
    42    26    29    1
@<TRIPOS>MOLECULE
*****
 39 42 0 0 0
SMALL
GASTEIGER

@<TRIPOS>ATOM
      1 N         139.2679  140.2687  160.7778 N.3     1  UNL1       -0.2711
      2 C         137.8271  140.4378  160.3965 C.3     1  UNL1        0.0933
      3 C         138.1840  140.2276  158.9548 C.3     1  UNL1        0.1035
      4 C         139.6248  140.0586  159.3361 C.3     1  UNL1        0.0933
      5 C         141.5673  140.3559  164.6450 C.3     1  UNL1        0.1085
      6 O         142.9408  140.0633  165.1720 O.3     1  UNL1       -0.3826
      7 C         140.1245  140.7656  164.6209 C.3     1  UNL1        0.0326
      8 C         139.3580  140.7366  163.3318 C.3     1  UNL1        0.0187
      9 C         140.0343  140.2978  162.0669 C.3     1  UNL1        0.0578
     10 C         141.4771  139.8881  162.0910 C.3     1  UNL1        0.0187
     11 C         142.2435  139.9172  163.3801 C.3     1  UNL1        0.0326
     12 H         142.9658  140.2404  166.1254 H       1  UNL1        0.2107
     13 C         140.9694  141.3673  168.9889 C.ar    1  UNL1        0.1491
     14 C         141.5989  140.0618  168.6026 C.ar    1  UNL1        0.0294
     15 C         141.7982  139.7247  167.1546 C.ar    1  UNL1        0.0018
     16 C         141.3680  140.6930  166.0930 C.ar    1  UNL1        0.0209
     17 C         140.7385  141.9985  166.4793 C.ar    1  UNL1        0.0976
     18 N         140.5392  142.3357  167.9273 N.ar    1  UNL1       -0.2338
     19 N         140.5708  142.0416  171.8849 N.1     1  UNL1       -0.1893
     20 C         140.7701  141.7044  170.4369 C.1     1  UNL1        0.1198
     21 N         137.4175  140.1986  157.6657 N.am    1  UNL1       -0.3018
     22 C         137.0855  141.4807  156.9615 C.2     1  UNL1        0.2426
     23 O         137.5200  142.7918  157.5463 O.2     1  UNL1       -0.2733
     24 H         137.1324  139.3380  157.2818 H       1  UNL1        0.1495
     25 C         136.3191  141.4516  155.6724 C.3     1  UNL1        0.1759
     26 N         134.8293  141.6259  155.6816 N.am    1  UNL1       -0.2931
     27 C         133.9390  140.4549  155.9752 C.2     1  UNL1        0.2462
     28 O         134.5386  139.1097  156.2595 O.2     1  UNL1       -0.2701
     29 H         134.4358  142.5088  155.4949 H       1  UNL1        0.1502
     30 C         132.4492  140.6291  155.9843 C.ar    1  UNL1        0.0533
     31 C         131.5895  139.6930  156.7809 C.ar    1  UNL1        0.0045
     32 C         130.0997  139.8673  156.7900 C.ar    1  UNL1        0.0001
     33 C         129.4696  140.9777  156.0027 C.ar    1  UNL1        0.0039
     34 C         130.3293  141.9139  155.2062 C.ar    1  UNL1        0.0716
     35 C         131.8191  141.7396  155.1970 C.ar    1  UNL1        0.0084
     36 C         129.6992  143.0243  154.4188 C.3     1  UNL1        0.4186
     37 F         129.0692  144.1347  153.6315 F       1  UNL1       -0.1659
     38 F         129.7160  142.1631  153.1908 F       1  UNL1       -0.1659
     39 F         129.6825  143.8856  155.6468 F       1  UNL1       -0.1659
@<TRIPOS>BOND
     1    19    20    3
     2    20    13    1
     3    13    14   ar
     4    14    15   ar
     5    15    16   ar
     6    16     5    1
     7     5     6    1
     8     5     7    1
     9     7     8    1
    10     8     9    1
    11     9     1    1
    12     1     2    1
    13     2     3    1
    14     3    21    1
    15    21    22   am
    16    22    23    2
    17    22    25    1
    18    25    26    1
    19    26    27   am
    20    27    28    2
    21    27    30    1
    22    30    31   ar
    23    31    32   ar
    24    32    33   ar
    25    33    34   ar
    26    34    36    1
    27    36    37    1
    28    36    38    1
    29    36    39    1
    30    34    35   ar
    31     3     4    1
    32     9    10    1
    33    10    11    1
    34    16    17   ar
    35    17    18   ar
    36    18    13   ar
    37    11     5    1
    38     4     1    1
    39    35    30   ar
    40     6    12    1
    41    21    24    1
    42    26    29    1
@<TRIPOS>MOLECULE
*****
 39 42 0 0 0
SMALL
GASTEIGER

@<TRIPOS>ATOM
      1 N         144.3540  142.6046  158.8219 N.3     1  UNL1       -0.2711
      2 C         144.5491  142.6077  160.3091 C.3     1  UNL1        0.0933
      3 C         143.1102  142.9874  160.4971 C.3     1  UNL1        0.1035
      4 C         142.9151  142.9842  159.0098 C.3     1  UNL1        0.0933
      5 C         146.9927  141.7923  155.2684 C.3     1  UNL1        0.1085
      6 O         146.9679  141.0520  153.9641 O.3     1  UNL1       -0.3826
      7 C         147.4942  142.6457  156.3954 C.3     1  UNL1        0.0326
      8 C         146.6146  142.9165  157.5800 C.3     1  UNL1        0.0187
      9 C         145.2336  142.3339  157.6374 C.3     1  UNL1        0.0578
     10 C         144.7321  141.4805  156.5104 C.3     1  UNL1        0.0187
     11 C         145.6117  141.2097  155.3259 C.3     1  UNL1        0.0326
     12 H         147.8149  141.1736  153.5071 H       1  UNL1        0.2107
     13 C         151.1099  142.7689  153.7371 C.ar    1  UNL1        0.1491
     14 C         149.9017  143.3427  153.0583 C.ar    1  UNL1        0.0294
     15 C         148.5292  143.0172  153.5688 C.ar    1  UNL1        0.0018
     16 C         148.3651  142.1179  154.7580 C.ar    1  UNL1        0.0209
     17 C         149.5734  141.5440  155.4367 C.ar    1  UNL1        0.0976
     18 N         150.9458  141.8696  154.9263 N.ar    1  UNL1       -0.2338
     19 N         153.8547  143.4199  152.7162 N.1     1  UNL1       -0.1893
     20 C         152.4823  143.0944  153.2266 C.1     1  UNL1        0.1198
     21 N         142.2306  143.2581  161.6816 N.am    1  UNL1       -0.3018
     22 C         141.3975  144.5046  161.7279 C.2     1  UNL1        0.2426
     23 O         141.4441  145.4804  160.5897 O.2     1  UNL1       -0.2733
     24 H         142.2000  142.6176  162.4287 H       1  UNL1        0.1495
     25 C         140.5180  144.7753  162.9125 C.3     1  UNL1        0.1759
     26 N         140.9751  144.3929  164.2890 N.am    1  UNL1       -0.2931
     27 C         140.8007  142.9838  164.7727 C.2     1  UNL1        0.2462
     28 O         140.1692  141.9572  163.8798 O.2     1  UNL1       -0.2701
     29 H         141.3895  145.0668  164.8750 H       1  UNL1        0.1502
     30 C         141.2578  142.6014  166.1492 C.ar    1  UNL1        0.0533
     31 C         142.5377  141.8405  166.3301 C.ar    1  UNL1        0.0045
     32 C         142.9948  141.4581  167.7066 C.ar    1  UNL1        0.0001
     33 C         142.1719  141.8367  168.9023 C.ar    1  UNL1        0.0039
     34 C         140.8920  142.5976  168.7214 C.ar    1  UNL1        0.0716
     35 C         140.4349  142.9800  167.3449 C.ar    1  UNL1        0.0084
     36 C         140.0691  142.9761  169.9171 C.3     1  UNL1        0.4186
     37 F         139.2463  143.3547  171.1127 F       1  UNL1       -0.1659
     38 F         140.3001  144.4274  169.6165 F       1  UNL1       -0.1659
     39 F         139.8381  141.5248  170.2176 F       1  UNL1       -0.1659
@<TRIPOS>BOND
     1    19    20    3
     2    20    13    1
     3    13    14   ar
     4    14    15   ar
     5    15    16   ar
     6    16     5    1
     7     5     6    1
     8     5     7    1
     9     7     8    1
    10     8     9    1
    11     9     1    1
    12     1     2    1
    13     2     3    1
    14     3    21    1
    15    21    22   am
    16    22    23    2
    17    22    25    1
    18    25    26    1
    19    26    27   am
    20    27    28    2
    21    27    30    1
    22    30    31   ar
    23    31    32   ar
    24    32    33   ar
    25    33    34   ar
    26    34    36    1
    27    36    37    1
    28    36    38    1
    29    36    39    1
    30    34    35   ar
    31     3     4    1
    32     9    10    1
    33    10    11    1
    34    16    17   ar
    35    17    18   ar
    36    18    13   ar
    37    11     5    1
    38     4     1    1
    39    35    30   ar
    40     6    12    1
    41    21    24    1
    42    26    29    1
