@<TRIPOS>MOLECULE
*****
 31 34 0 0 0
SMALL
GASTEIGER

@<TRIPOS>ATOM
      1 C         141.2381  140.3392  161.8066 C.ar    1  UNL1        0.1401
      2 C         141.9608  139.0706  161.4622 C.ar    1  UNL1        0.0370
      3 C         142.3462  138.1088  162.5468 C.ar    1  UNL1        0.0044
      4 C         142.0091  138.4155  163.9759 C.ar    1  UNL1        0.0151
      5 C         141.2864  139.6841  164.3203 C.ar    1  UNL1        0.0572
      6 C         140.9010  140.6459  163.2357 C.ar    1  UNL1        0.0518
      7 N         140.9493  139.9909  165.7493 N.am    1  UNL1       -0.2532
      8 C         139.6275  139.4715  166.2322 C.3     1  UNL1        0.1199
      9 C         139.0084  139.6094  167.5915 C.3     1  UNL1        0.1141
     10 N         139.5584  140.3008  168.8037 N.pl3   1  UNL1       -0.2896
     11 C         138.6885  140.2630  170.0252 C.3     1  UNL1        0.1136
     12 C         140.8631  141.0250  168.9562 C.ar    1  UNL1        0.1361
     13 N         141.0259  141.5752  170.3421 N.ar    1  UNL1       -0.2290
     14 C         142.2658  142.3370  170.7057 C.ar    1  UNL1        0.1003
     15 C         143.3428  142.5487  169.6834 C.ar    1  UNL1        0.0209
     16 C         143.1800  141.9986  168.2975 C.ar    1  UNL1        0.0089
     17 C         141.9402  141.2367  167.9339 C.ar    1  UNL1        0.0854
     18 C         141.9785  140.7765  166.5067 C.2     1  UNL1        0.2555
     19 O         143.2088  141.1514  165.7348 O.2     1  UNL1       -0.2695
     20 O         140.8526  141.3009  160.7220 O.3     1  UNL1       -0.4741
     21 C         139.4570  141.8475  160.6656 C.3     1  UNL1        0.1954
     22 C         139.0478  142.9561  161.5896 C.ar    1  UNL1        0.0468
     23 C         137.8205  142.9776  162.4517 C.ar    1  UNL1        0.0062
     24 C         137.8084  144.2725  163.2086 C.ar    1  UNL1        0.0073
     25 C         139.0282  145.0514  162.8143 C.ar    1  UNL1        0.0352
     26 S         139.7942  144.2378  161.8137 S.2     1  UNL1       -0.0873
     27 C         138.4704  141.2858  159.6853 C.3     1  UNL1        0.0658
     28 C         137.8689  139.9317  159.9189 C.3     1  UNL1        0.0727
     29 C         138.0364  138.5119  162.0882 C.3     1  UNL1        0.0859
     30 N         137.3456  139.5675  161.2766 N.3     1  UNL1       -0.2962
     31 H         137.3553  140.4213  161.8346 H       1  UNL1        0.1233
@<TRIPOS>BOND
     1    29    30    1
     2    30    28    1
     3    28    27    1
     4    21    27    1
     5    21    20    1
     6    20     1    1
     7     1     2   ar
     8     2     3   ar
     9     3     4   ar
    10     4     5   ar
    11     5     7    1
    12     7     8    1
    13     8     9    1
    14     9    10    1
    15    10    11    1
    16    10    12    1
    17    12    13   ar
    18    13    14   ar
    19    14    15   ar
    20    15    16   ar
    21    16    17   ar
    22    17    18    1
    23    18    19    2
    24     5     6   ar
    25    21    22    1
    26    22    23   ar
    27    23    24   ar
    28    24    25   ar
    29    25    26   ar
    30     6     1   ar
    31    26    22   ar
    32    18     7   am
    33    17    12   ar
    34    30    31    1
@<TRIPOS>MOLECULE
*****
 31 34 0 0 0
SMALL
GASTEIGER

@<TRIPOS>ATOM
      1 C         141.6473  140.4563  161.9313 C.ar    1  UNL1        0.1401
      2 C         142.2386  139.1240  161.5769 C.ar    1  UNL1        0.0370
      3 C         142.4437  138.0874  162.6415 C.ar    1  UNL1        0.0044
      4 C         142.0575  138.3830  164.0605 C.ar    1  UNL1        0.0151
      5 C         141.4662  139.7152  164.4149 C.ar    1  UNL1        0.0572
      6 C         141.2611  140.7518  163.3503 C.ar    1  UNL1        0.0518
      7 N         141.0801  140.0108  165.8338 N.am    1  UNL1       -0.2532
      8 C         139.7409  139.4911  166.2657 C.3     1  UNL1        0.1199
      9 C         139.0750  139.6192  167.6037 C.3     1  UNL1        0.1141
     10 N         139.5840  140.2988  168.8403 N.pl3   1  UNL1       -0.2896
     11 C         138.6718  140.2531  170.0302 C.3     1  UNL1        0.1136
     12 C         140.8844  141.0180  169.0444 C.ar    1  UNL1        0.1361
     13 N         141.0000  141.5559  170.4398 N.ar    1  UNL1       -0.2290
     14 C         142.2283  142.3112  170.8531 C.ar    1  UNL1        0.1003
     15 C         143.3410  142.5285  169.8709 C.ar    1  UNL1        0.0209
     16 C         143.2254  141.9906  168.4755 C.ar    1  UNL1        0.0089
     17 C         141.9971  141.2353  168.0622 C.ar    1  UNL1        0.0854
     18 C         142.0841  140.7871  166.6334 C.2     1  UNL1        0.2555
     19 O         143.3416  141.1651  165.9082 O.2     1  UNL1       -0.2695
     20 O         141.4422  141.4929  160.8667 O.3     1  UNL1       -0.4741
     21 C         141.9815  142.8796  161.0564 C.3     1  UNL1        0.1954
     22 C         141.0498  144.0081  161.3857 C.ar    1  UNL1        0.0468
     23 C         140.2465  144.1495  162.6445 C.ar    1  UNL1        0.0062
     24 C         139.4581  145.4222  162.5507 C.ar    1  UNL1        0.0073
     25 C         139.7741  146.0673  161.2340 C.ar    1  UNL1        0.0352
     26 S         140.7578  145.1934  160.5139 S.2     1  UNL1       -0.0873
     27 C         143.4525  143.1379  160.9169 C.3     1  UNL1        0.0658
     28 C         144.2437  143.6244  162.0947 C.3     1  UNL1        0.0727
     29 C         143.6432  145.2180  164.0568 C.3     1  UNL1        0.0859
     30 N         144.0280  145.0120  162.6217 N.3     1  UNL1       -0.2962
     31 H         144.8993  145.5216  162.4744 H       1  UNL1        0.1233
@<TRIPOS>BOND
     1    29    30    1
     2    30    28    1
     3    28    27    1
     4    21    27    1
     5    21    20    1
     6    20     1    1
     7     1     2   ar
     8     2     3   ar
     9     3     4   ar
    10     4     5   ar
    11     5     7    1
    12     7     8    1
    13     8     9    1
    14     9    10    1
    15    10    11    1
    16    10    12    1
    17    12    13   ar
    18    13    14   ar
    19    14    15   ar
    20    15    16   ar
    21    16    17   ar
    22    17    18    1
    23    18    19    2
    24     5     6   ar
    25    21    22    1
    26    22    23   ar
    27    23    24   ar
    28    24    25   ar
    29    25    26   ar
    30     6     1   ar
    31    26    22   ar
    32    18     7   am
    33    17    12   ar
    34    30    31    1
@<TRIPOS>MOLECULE
*****
 31 34 0 0 0
SMALL
GASTEIGER

@<TRIPOS>ATOM
      1 C         144.0452  142.4824  162.8401 C.ar    1  UNL1        0.1401
      2 C         145.3609  141.7751  162.9778 C.ar    1  UNL1        0.0370
      3 C         145.4937  140.6147  163.9189 C.ar    1  UNL1        0.0044
      4 C         144.3109  140.1614  164.7224 C.ar    1  UNL1        0.0151
      5 C         142.9952  140.8687  164.5847 C.ar    1  UNL1        0.0572
      6 C         142.8624  142.0291  163.6436 C.ar    1  UNL1        0.0518
      7 N         141.8124  140.4155  165.3881 N.am    1  UNL1       -0.2532
      8 C         140.8698  139.4815  164.6886 C.3     1  UNL1        0.1199
      9 C         139.6105  138.8575  165.2130 C.3     1  UNL1        0.1141
     10 N         138.9830  139.0134  166.5665 N.pl3   1  UNL1       -0.2896
     11 C         137.7105  138.2500  166.7857 C.3     1  UNL1        0.1136
     12 C         139.4595  139.8317  167.7298 C.ar    1  UNL1        0.1361
     13 N         138.5326  139.7088  168.9027 N.ar    1  UNL1       -0.2290
     14 C         138.8275  140.4505  170.1726 C.ar    1  UNL1        0.1003
     15 C         140.0494  141.3150  170.2698 C.ar    1  UNL1        0.0209
     16 C         140.9764  141.4380  169.0969 C.ar    1  UNL1        0.0089
     17 C         140.6814  140.6963  167.8269 C.ar    1  UNL1        0.0854
     18 C         141.7285  140.9561  166.7847 C.2     1  UNL1        0.2555
     19 O         142.8386  141.8785  167.1933 O.2     1  UNL1       -0.2695
     20 O         143.9124  143.6428  161.8990 O.3     1  UNL1       -0.4741
     21 C         142.7207  143.7414  160.9934 C.3     1  UNL1        0.1954
     22 C         141.5903  144.6646  161.3393 C.ar    1  UNL1        0.0468
     23 C         141.2303  145.1409  162.7154 C.ar    1  UNL1        0.0062
     24 C         140.0389  146.0443  162.5964 C.ar    1  UNL1        0.0073
     25 C         139.6624  146.1265  161.1467 C.ar    1  UNL1        0.0352
     26 S         140.6212  145.2738  160.3698 S.2     1  UNL1       -0.0873
     27 C         142.6594  142.9167  159.7419 C.3     1  UNL1        0.0658
     28 C         143.4679  143.3128  158.5422 C.3     1  UNL1        0.0727
     29 C         142.3243  144.2906  156.4242 C.3     1  UNL1        0.0859
     30 N         143.0560  144.4960  157.7175 N.3     1  UNL1       -0.2962
     31 H         142.4550  145.0714  158.3076 H       1  UNL1        0.1233
@<TRIPOS>BOND
     1    29    30    1
     2    30    28    1
     3    28    27    1
     4    21    27    1
     5    21    20    1
     6    20     1    1
     7     1     2   ar
     8     2     3   ar
     9     3     4   ar
    10     4     5   ar
    11     5     7    1
    12     7     8    1
    13     8     9    1
    14     9    10    1
    15    10    11    1
    16    10    12    1
    17    12    13   ar
    18    13    14   ar
    19    14    15   ar
    20    15    16   ar
    21    16    17   ar
    22    17    18    1
    23    18    19    2
    24     5     6   ar
    25    21    22    1
    26    22    23   ar
    27    23    24   ar
    28    24    25   ar
    29    25    26   ar
    30     6     1   ar
    31    26    22   ar
    32    18     7   am
    33    17    12   ar
    34    30    31    1
@<TRIPOS>MOLECULE
*****
 31 34 0 0 0
SMALL
GASTEIGER

@<TRIPOS>ATOM
      1 C         143.7143  142.7001  162.2320 C.ar    1  UNL1        0.1401
      2 C         145.1146  142.1992  162.4279 C.ar    1  UNL1        0.0370
      3 C         145.4047  141.1788  163.4884 C.ar    1  UNL1        0.0044
      4 C         144.2946  140.6593  164.3531 C.ar    1  UNL1        0.0151
      5 C         142.8943  141.1602  164.1572 C.ar    1  UNL1        0.0572
      6 C         142.6041  142.1805  163.0967 C.ar    1  UNL1        0.0518
      7 N         141.7842  140.6406  165.0219 N.am    1  UNL1       -0.2532
      8 C         140.8769  139.6328  164.3806 C.3     1  UNL1        0.1199
      9 C         139.6895  138.9330  164.9725 C.3     1  UNL1        0.1141
     10 N         139.1161  139.0683  166.3520 N.pl3   1  UNL1       -0.2896
     11 C         137.9109  138.2235  166.6415 C.3     1  UNL1        0.1136
     12 C         139.5883  139.9367  167.4802 C.ar    1  UNL1        0.1361
     13 N         138.7275  139.7704  168.6972 N.ar    1  UNL1       -0.2290
     14 C         139.0291  140.5516  169.9417 C.ar    1  UNL1        0.1003
     15 C         140.1915  141.4992  169.9690 C.ar    1  UNL1        0.0209
     16 C         141.0524  141.6656  168.7520 C.ar    1  UNL1        0.0089
     17 C         140.7508  140.8843  167.5076 C.ar    1  UNL1        0.0854
     18 C         141.7280  141.1976  166.4135 C.2     1  UNL1        0.2555
     19 O         142.7894  142.2005  166.7564 O.2     1  UNL1       -0.2695
     20 O         143.4241  143.7205  161.1715 O.3     1  UNL1       -0.4741
     21 C         142.7767  143.3017  159.8850 C.3     1  UNL1        0.1954
     22 C         143.4215  142.2534  159.0275 C.ar    1  UNL1        0.0468
     23 C         143.1203  140.7842  159.0547 C.ar    1  UNL1        0.0062
     24 C         143.9934  140.1130  158.0362 C.ar    1  UNL1        0.0073
     25 C         144.8342  141.1674  157.3795 C.ar    1  UNL1        0.0352
     26 S         144.4808  142.4902  157.9921 S.2     1  UNL1       -0.0873
     27 C         141.4846  143.9310  159.4558 C.3     1  UNL1        0.0658
     28 C         141.1343  145.3145  159.9175 C.3     1  UNL1        0.0727
     29 C         139.8067  146.0787  162.0159 C.3     1  UNL1        0.0859
     30 N         141.0900  145.6271  161.3838 N.3     1  UNL1       -0.2962
     31 H         141.3777  144.7803  161.8742 H       1  UNL1        0.1233
@<TRIPOS>BOND
     1    29    30    1
     2    30    28    1
     3    28    27    1
     4    21    27    1
     5    21    20    1
     6    20     1    1
     7     1     2   ar
     8     2     3   ar
     9     3     4   ar
    10     4     5   ar
    11     5     7    1
    12     7     8    1
    13     8     9    1
    14     9    10    1
    15    10    11    1
    16    10    12    1
    17    12    13   ar
    18    13    14   ar
    19    14    15   ar
    20    15    16   ar
    21    16    17   ar
    22    17    18    1
    23    18    19    2
    24     5     6   ar
    25    21    22    1
    26    22    23   ar
    27    23    24   ar
    28    24    25   ar
    29    25    26   ar
    30     6     1   ar
    31    26    22   ar
    32    18     7   am
    33    17    12   ar
    34    30    31    1
@<TRIPOS>MOLECULE
*****
 31 34 0 0 0
SMALL
GASTEIGER

@<TRIPOS>ATOM
      1 C         140.5364  143.3832  164.9137 C.ar    1  UNL1        0.1401
      2 C         139.3415  144.0159  165.5633 C.ar    1  UNL1        0.0370
      3 C         138.1746  144.4494  164.7264 C.ar    1  UNL1        0.0044
      4 C         138.2025  144.2502  163.2400 C.ar    1  UNL1        0.0151
      5 C         139.3974  143.6175  162.5904 C.ar    1  UNL1        0.0572
      6 C         140.5643  143.1840  163.4273 C.ar    1  UNL1        0.0518
      7 N         139.4254  143.4183  161.1040 N.am    1  UNL1       -0.2532
      8 C         138.6123  142.2692  160.5859 C.3     1  UNL1        0.1199
      9 C         138.4357  141.8125  159.1680 C.3     1  UNL1        0.1141
     10 N         139.0287  142.3922  157.9181 N.pl3   1  UNL1       -0.2896
     11 C         138.6565  141.7010  156.6399 C.3     1  UNL1        0.1136
     12 C         139.9447  143.5717  157.7772 C.ar    1  UNL1        0.1361
     13 N         140.3053  143.8172  156.3421 N.ar    1  UNL1       -0.2290
     14 C         141.2152  144.9538  155.9813 C.ar    1  UNL1        0.1003
     15 C         141.7644  145.8450  157.0557 C.ar    1  UNL1        0.0209
     16 C         141.4037  145.5995  158.4908 C.ar    1  UNL1        0.0089
     17 C         140.4939  144.4629  158.8516 C.ar    1  UNL1        0.0854
     18 C         140.2627  144.3946  160.3321 C.2     1  UNL1        0.2555
     19 O         140.9614  145.4409  161.1488 O.2     1  UNL1       -0.2695
     20 O         141.7034  142.9497  165.7506 O.3     1  UNL1       -0.4741
     21 C         143.0380  142.7100  165.1095 C.3     1  UNL1        0.1954
     22 C         143.4505  141.3176  164.7343 C.ar    1  UNL1        0.0468
     23 C         144.8126  140.8971  164.2673 C.ar    1  UNL1        0.0062
     24 C         144.7772  139.4207  164.0045 C.ar    1  UNL1        0.0073
     25 C         143.3933  138.9287  164.3091 C.ar    1  UNL1        0.0352
     26 S         142.5734  140.1010  164.7601 S.2     1  UNL1       -0.0873
     27 C         143.9603  143.8627  164.8436 C.3     1  UNL1        0.0658
     28 C         143.5134  144.9940  163.9659 C.3     1  UNL1        0.0727
     29 C         143.9473  143.6095  161.8107 C.3     1  UNL1        0.0859
     30 N         143.7517  144.9345  162.4862 N.3     1  UNL1       -0.2962
     31 H         142.9477  145.3764  162.0405 H       1  UNL1        0.1233
@<TRIPOS>BOND
     1    29    30    1
     2    30    28    1
     3    28    27    1
     4    21    27    1
     5    21    20    1
     6    20     1    1
     7     1     2   ar
     8     2     3   ar
     9     3     4   ar
    10     4     5   ar
    11     5     7    1
    12     7     8    1
    13     8     9    1
    14     9    10    1
    15    10    11    1
    16    10    12    1
    17    12    13   ar
    18    13    14   ar
    19    14    15   ar
    20    15    16   ar
    21    16    17   ar
    22    17    18    1
    23    18    19    2
    24     5     6   ar
    25    21    22    1
    26    22    23   ar
    27    23    24   ar
    28    24    25   ar
    29    25    26   ar
    30     6     1   ar
    31    26    22   ar
    32    18     7   am
    33    17    12   ar
    34    30    31    1
@<TRIPOS>MOLECULE
*****
 31 34 0 0 0
SMALL
GASTEIGER

@<TRIPOS>ATOM
      1 C         141.6432  140.0886  165.7676 C.ar    1  UNL1        0.1401
      2 C         142.6153  139.2266  166.5174 C.ar    1  UNL1        0.0370
      3 C         143.8370  138.6978  165.8262 C.ar    1  UNL1        0.0044
      4 C         144.0868  139.0311  164.3851 C.ar    1  UNL1        0.0151
      5 C         143.1147  139.8931  163.6354 C.ar    1  UNL1        0.0572
      6 C         141.8930  140.4218  164.3266 C.ar    1  UNL1        0.0518
      7 N         143.3645  140.2264  162.1944 N.am    1  UNL1       -0.2532
      8 C         143.9519  141.5814  161.9321 C.3     1  UNL1        0.1199
      9 C         144.3137  142.2053  160.6168 C.3     1  UNL1        0.1141
     10 N         144.1774  141.6282  159.2390 N.pl3   1  UNL1       -0.2896
     11 C         144.6331  142.5114  158.1155 C.3     1  UNL1        0.1136
     12 C         143.6457  140.2847  158.8361 C.ar    1  UNL1        0.1361
     13 N         143.6839  140.1041  157.3475 N.ar    1  UNL1       -0.2290
     14 C         143.1953  138.8254  156.7344 C.ar    1  UNL1        0.1003
     15 C         142.6685  137.7272  157.6099 C.ar    1  UNL1        0.0209
     16 C         142.6303  137.9077  159.0984 C.ar    1  UNL1        0.0089
     17 C         143.1189  139.1865  159.7115 C.ar    1  UNL1        0.0854
     18 C         142.9938  139.1606  161.2061 C.2     1  UNL1        0.2555
     19 O         142.4223  137.9024  161.7896 O.2     1  UNL1       -0.2695
     20 O         140.4215  140.6173  166.4589 O.3     1  UNL1       -0.4741
     21 C         139.1829  140.9171  165.6678 C.3     1  UNL1        0.1954
     22 C         138.9301  142.3090  165.1692 C.ar    1  UNL1        0.0468
     23 C         137.7958  142.7367  164.2858 C.ar    1  UNL1        0.0062
     24 C         137.9319  144.2097  164.0371 C.ar    1  UNL1        0.0073
     25 C         139.1504  144.6924  164.7667 C.ar    1  UNL1        0.0352
     26 S         139.7674  143.5177  165.4663 S.2     1  UNL1       -0.0873
     27 C         138.1971  139.8251  165.3752 C.3     1  UNL1        0.0658
     28 C         138.5400  138.4000  165.6934 C.3     1  UNL1        0.0727
     29 C         139.1034  137.7154  163.2513 C.3     1  UNL1        0.0859
     30 N         139.3501  137.5895  164.7255 N.3     1  UNL1       -0.2962
     31 H         140.3278  137.8343  164.8824 H       1  UNL1        0.1233
@<TRIPOS>BOND
     1    29    30    1
     2    30    28    1
     3    28    27    1
     4    21    27    1
     5    21    20    1
     6    20     1    1
     7     1     2   ar
     8     2     3   ar
     9     3     4   ar
    10     4     5   ar
    11     5     7    1
    12     7     8    1
    13     8     9    1
    14     9    10    1
    15    10    11    1
    16    10    12    1
    17    12    13   ar
    18    13    14   ar
    19    14    15   ar
    20    15    16   ar
    21    16    17   ar
    22    17    18    1
    23    18    19    2
    24     5     6   ar
    25    21    22    1
    26    22    23   ar
    27    23    24   ar
    28    24    25   ar
    29    25    26   ar
    30     6     1   ar
    31    26    22   ar
    32    18     7   am
    33    17    12   ar
    34    30    31    1
@<TRIPOS>MOLECULE
*****
 31 34 0 0 0
SMALL
GASTEIGER

@<TRIPOS>ATOM
      1 C         140.6540  143.1316  164.9814 C.ar    1  UNL1        0.1401
      2 C         139.5455  143.8039  165.7361 C.ar    1  UNL1        0.0370
      3 C         138.4557  144.5165  164.9915 C.ar    1  UNL1        0.0044
      4 C         138.4742  144.5570  163.4921 C.ar    1  UNL1        0.0151
      5 C         139.5826  143.8847  162.7374 C.ar    1  UNL1        0.0572
      6 C         140.6725  143.1721  163.4820 C.ar    1  UNL1        0.0518
      7 N         139.6012  143.9251  161.2381 N.am    1  UNL1       -0.2532
      8 C         140.2456  145.1343  160.6275 C.3     1  UNL1        0.1199
      9 C         140.4208  145.4680  159.1756 C.3     1  UNL1        0.1141
     10 N         139.9950  144.6750  157.9758 N.pl3   1  UNL1       -0.2896
     11 C         140.3181  145.2852  156.6442 C.3     1  UNL1        0.1136
     12 C         139.2887  143.3524  157.9313 C.ar    1  UNL1        0.1361
     13 N         139.0480  142.9068  156.5194 N.ar    1  UNL1       -0.2290
     14 C         138.3524  141.6051  156.2521 C.ar    1  UNL1        0.1003
     15 C         137.8975  140.7488  157.3966 C.ar    1  UNL1        0.0209
     16 C         138.1383  141.1944  158.8085 C.ar    1  UNL1        0.0089
     17 C         138.8339  142.4961  159.0759 C.ar    1  UNL1        0.0854
     18 C         138.9730  142.7511  160.5475 C.2     1  UNL1        0.2555
     19 O         138.4092  141.6918  161.4476 O.2     1  UNL1       -0.2695
     20 O         141.7438  142.4190  165.7260 O.3     1  UNL1       -0.4741
     21 C         141.6881  140.9293  165.8924 C.3     1  UNL1        0.1954
     22 C         140.3978  140.1975  165.6696 C.ar    1  UNL1        0.0468
     23 C         139.2745  140.0707  166.6555 C.ar    1  UNL1        0.0062
     24 C         138.1868  139.2588  166.0170 C.ar    1  UNL1        0.0073
     25 C         138.6379  138.8839  164.6364 C.ar    1  UNL1        0.0352
     26 S         140.0044  139.4640  164.4217 S.2     1  UNL1       -0.0873
     27 C         142.9226  140.1714  166.2817 C.3     1  UNL1        0.0658
     28 C         142.8681  139.1718  167.3986 C.3     1  UNL1        0.0727
     29 C         141.6186  139.5992  169.6360 C.3     1  UNL1        0.0859
     30 N         142.8793  139.6385  168.8241 N.3     1  UNL1       -0.2962
     31 H         143.5645  139.0652  169.3162 H       1  UNL1        0.1233
@<TRIPOS>BOND
     1    29    30    1
     2    30    28    1
     3    28    27    1
     4    21    27    1
     5    21    20    1
     6    20     1    1
     7     1     2   ar
     8     2     3   ar
     9     3     4   ar
    10     4     5   ar
    11     5     7    1
    12     7     8    1
    13     8     9    1
    14     9    10    1
    15    10    11    1
    16    10    12    1
    17    12    13   ar
    18    13    14   ar
    19    14    15   ar
    20    15    16   ar
    21    16    17   ar
    22    17    18    1
    23    18    19    2
    24     5     6   ar
    25    21    22    1
    26    22    23   ar
    27    23    24   ar
    28    24    25   ar
    29    25    26   ar
    30     6     1   ar
    31    26    22   ar
    32    18     7   am
    33    17    12   ar
    34    30    31    1
@<TRIPOS>MOLECULE
*****
 31 34 0 0 0
SMALL
GASTEIGER

@<TRIPOS>ATOM
      1 C         143.8322  142.9908  162.4433 C.ar    1  UNL1        0.1401
      2 C         145.1892  142.3519  162.4623 C.ar    1  UNL1        0.0370
      3 C         145.5449  141.3786  163.5468 C.ar    1  UNL1        0.0044
      4 C         144.5435  141.0441  164.6124 C.ar    1  UNL1        0.0151
      5 C         143.1865  141.6831  164.5935 C.ar    1  UNL1        0.0572
      6 C         142.8309  142.6564  163.5090 C.ar    1  UNL1        0.0518
      7 N         142.1852  141.3487  165.6590 N.am    1  UNL1       -0.2532
      8 C         142.3482  142.0808  166.9581 C.3     1  UNL1        0.1199
      9 C         141.5195  141.9714  168.2037 C.3     1  UNL1        0.1141
     10 N         140.3232  141.1030  168.4577 N.pl3   1  UNL1       -0.2896
     11 C         139.7087  141.2241  169.8207 C.3     1  UNL1        0.1136
     12 C         139.6600  140.1294  167.5291 C.ar    1  UNL1        0.1361
     13 N         138.4856  139.4625  168.1817 N.ar    1  UNL1       -0.2290
     14 C         137.6806  138.4500  167.4222 C.ar    1  UNL1        0.1003
     15 C         138.0500  138.1044  166.0101 C.ar    1  UNL1        0.0209
     16 C         139.2244  138.7714  165.3574 C.ar    1  UNL1        0.0089
     17 C         140.0294  139.7838  166.1169 C.ar    1  UNL1        0.0854
     18 C         141.1532  140.3265  165.2847 C.2     1  UNL1        0.2555
     19 O         141.2591  139.7738  163.8943 O.2     1  UNL1       -0.2695
     20 O         143.4766  143.9641  161.3588 O.3     1  UNL1       -0.4741
     21 C         142.5645  143.5447  160.2443 C.3     1  UNL1        0.1954
     22 C         143.0928  142.7067  159.1180 C.ar    1  UNL1        0.0468
     23 C         144.5391  142.4757  158.7941 C.ar    1  UNL1        0.0062
     24 C         144.6077  141.5787  157.5938 C.ar    1  UNL1        0.0073
     25 C         143.2039  141.2553  157.1759 C.ar    1  UNL1        0.0352
     26 S         142.2676  141.9525  158.1179 S.2     1  UNL1       -0.0873
     27 C         141.1241  143.9633  160.2560 C.3     1  UNL1        0.0658
     28 C         140.7664  145.4199  160.2678 C.3     1  UNL1        0.0727
     29 C         139.4516  145.4540  162.5083 C.3     1  UNL1        0.0859
     30 N         140.4207  146.0969  161.5609 N.3     1  UNL1       -0.2962
     31 H         141.2949  146.2194  162.0720 H       1  UNL1        0.1233
@<TRIPOS>BOND
     1    29    30    1
     2    30    28    1
     3    28    27    1
     4    21    27    1
     5    21    20    1
     6    20     1    1
     7     1     2   ar
     8     2     3   ar
     9     3     4   ar
    10     4     5   ar
    11     5     7    1
    12     7     8    1
    13     8     9    1
    14     9    10    1
    15    10    11    1
    16    10    12    1
    17    12    13   ar
    18    13    14   ar
    19    14    15   ar
    20    15    16   ar
    21    16    17   ar
    22    17    18    1
    23    18    19    2
    24     5     6   ar
    25    21    22    1
    26    22    23   ar
    27    23    24   ar
    28    24    25   ar
    29    25    26   ar
    30     6     1   ar
    31    26    22   ar
    32    18     7   am
    33    17    12   ar
    34    30    31    1
@<TRIPOS>MOLECULE
*****
 31 34 0 0 0
SMALL
GASTEIGER

@<TRIPOS>ATOM
      1 C         142.6262  141.7524  165.4072 C.ar    1  UNL1        0.1401
      2 C         143.6882  142.5128  166.1447 C.ar    1  UNL1        0.0370
      3 C         144.4248  143.6265  165.4612 C.ar    1  UNL1        0.0044
      4 C         144.0995  143.9798  164.0401 C.ar    1  UNL1        0.0151
      5 C         143.0374  143.2194  163.3026 C.ar    1  UNL1        0.0572
      6 C         142.3008  142.1057  163.9861 C.ar    1  UNL1        0.0518
      7 N         142.7121  143.5726  161.8816 N.am    1  UNL1       -0.2532
      8 C         141.6119  144.5751  161.6957 C.3     1  UNL1        0.1199
      9 C         141.0577  145.1293  160.4167 C.3     1  UNL1        0.1141
     10 N         141.4670  144.8178  159.0077 N.pl3   1  UNL1       -0.2896
     11 C         140.7120  145.5450  157.9348 C.3     1  UNL1        0.1136
     12 C         142.5315  143.8752  158.5296 C.ar    1  UNL1        0.1361
     13 N         142.6174  143.8597  157.0321 N.ar    1  UNL1       -0.2290
     14 C         143.6214  142.9803  156.3477 C.ar    1  UNL1        0.1003
     15 C         144.5395  142.1164  157.1606 C.ar    1  UNL1        0.0209
     16 C         144.4535  142.1319  158.6580 C.ar    1  UNL1        0.0089
     17 C         143.4495  143.0113  159.3425 C.ar    1  UNL1        0.0854
     18 C         143.5298  142.8767  160.8343 C.2     1  UNL1        0.2555
     19 O         144.5649  141.9195  161.3465 O.2     1  UNL1       -0.2695
     20 O         141.8896  140.6388  166.0907 O.3     1  UNL1       -0.4741
     21 C         140.5240  140.8823  166.6616 C.3     1  UNL1        0.1954
     22 C         140.3780  141.5330  168.0051 C.ar    1  UNL1        0.0468
     23 C         140.6106  142.9826  168.3127 C.ar    1  UNL1        0.0062
     24 C         140.3501  143.1939  169.7747 C.ar    1  UNL1        0.0073
     25 C         139.9565  141.8749  170.3708 C.ar    1  UNL1        0.0352
     26 S         139.9738  140.8484  169.2771 S.2     1  UNL1       -0.0873
     27 C         139.3045  140.4751  165.8890 C.3     1  UNL1        0.0658
     28 C         139.2416  139.1219  165.2450 C.3     1  UNL1        0.0727
     29 C         141.1341  137.4695  164.5834 C.3     1  UNL1        0.0859
     30 N         140.3181  138.6940  164.2922 N.3     1  UNL1       -0.2962
     31 H         139.8685  138.5404  163.3896 H       1  UNL1        0.1233
@<TRIPOS>BOND
     1    29    30    1
     2    30    28    1
     3    28    27    1
     4    21    27    1
     5    21    20    1
     6    20     1    1
     7     1     2   ar
     8     2     3   ar
     9     3     4   ar
    10     4     5   ar
    11     5     7    1
    12     7     8    1
    13     8     9    1
    14     9    10    1
    15    10    11    1
    16    10    12    1
    17    12    13   ar
    18    13    14   ar
    19    14    15   ar
    20    15    16   ar
    21    16    17   ar
    22    17    18    1
    23    18    19    2
    24     5     6   ar
    25    21    22    1
    26    22    23   ar
    27    23    24   ar
    28    24    25   ar
    29    25    26   ar
    30     6     1   ar
    31    26    22   ar
    32    18     7   am
    33    17    12   ar
    34    30    31    1
