@<TRIPOS>MOLECULE
*****
 42 46 0 0 0
SMALL
GASTEIGER

@<TRIPOS>ATOM
      1 O         144.4536  144.5930  162.3742 O.2     1  UNL1       -0.2701
      2 C         143.1986  143.8672  161.9891 C.2     1  UNL1        0.2469
      3 N         143.2195  142.8800  160.8599 N.am    1  UNL1       -0.2985
      4 H         142.3959  142.4037  160.6071 H       1  UNL1        0.1498
      5 C         141.9226  144.1285  162.7332 C.2     1  UNL1        0.0665
      6 C         140.9043  145.0732  162.1670 C.2     1  UNL1        0.0931
      7 N         139.6284  145.3346  162.9111 N.am    1  UNL1       -0.1740
      8 C         139.3707  144.6513  164.2213 C.2     1  UNL1        0.2688
      9 O         138.0948  144.9127  164.9654 O.2     1  UNL1       -0.2680
     10 C         140.3891  143.7065  164.7875 C.2     1  UNL1        0.0533
     11 C         140.1315  143.0232  166.0977 C.2     1  UNL1        0.0239
     12 C         141.1498  142.0786  166.6638 C.2     1  UNL1        0.1184
     13 C         142.4257  141.8172  165.9198 C.2     1  UNL1       -0.0015
     14 C         142.6834  142.5005  164.6096 C.3     1  UNL1        0.0540
     15 C         141.6650  143.4452  164.0434 C.2     1  UNL1       -0.0076
     16 S         140.8922  141.3952  167.9741 S.O2    1  UNL1        0.0630
     17 O         141.3709  140.0984  167.3918 O.2     1  UNL1       -0.1528
     18 O         140.4135  142.6920  168.5564 O.2     1  UNL1       -0.1528
     19 N         140.6346  140.7118  169.2843 N.3     1  UNL1       -0.1554
     20 C         139.4162  140.4326  170.1134 C.3     1  UNL1        0.0973
     21 C         140.2704  139.7454  171.1372 C.3     1  UNL1        0.0383
     22 C         141.4888  140.0246  170.3081 C.3     1  UNL1        0.0973
     23 C         144.4955  142.6187  160.1158 C.3     1  UNL1        0.1204
     24 C         144.4521  142.2092  158.6734 C.3     1  UNL1        0.1459
     25 O         144.6850  143.2279  157.5973 O.3     1  UNL1       -0.3813
     26 H         144.8476  144.0943  158.0020 H       1  UNL1        0.2105
     27 C         144.1759  140.7811  158.3071 C.3     1  UNL1        0.1034
     28 N         143.1002  140.0182  159.0217 N.3     1  UNL1       -0.2704
     29 C         143.4650  139.0253  160.0852 C.3     1  UNL1        0.0759
     30 C         142.3893  138.2624  160.7998 C.3     1  UNL1        0.0609
     31 C         140.9486  138.4922  160.4508 C.3     1  UNL1        0.1687
     32 C         140.5838  139.4851  159.3873 C.3     1  UNL1        0.0609
     33 C         141.6596  140.2480  158.6727 C.3     1  UNL1        0.0759
     34 O         139.8729  137.7293  161.1654 O.3     1  UNL1       -0.4790
     35 C         139.4237  138.1649  162.5286 C.ar    1  UNL1        0.1393
     36 C         139.6106  137.2548  163.7062 C.ar    1  UNL1        0.0378
     37 C         139.1614  137.6904  165.0695 C.ar    1  UNL1        0.0154
     38 C         138.5254  139.0360  165.2552 C.ar    1  UNL1        0.0684
     39 CL        138.0762  139.4716  166.6184 Cl      1  UNL1       -0.0814
     40 C         138.3385  139.9461  164.0776 C.ar    1  UNL1        0.0712
     41 CL        137.7023  141.2919  164.2632 Cl      1  UNL1       -0.0813
     42 C         138.7876  139.5105  162.7143 C.ar    1  UNL1        0.0491
@<TRIPOS>BOND
     1     1     2    2
     2     2     3   am
     3     3    23    1
     4    23    24    1
     5    24    25    1
     6    24    27    1
     7    27    28    1
     8    28    29    1
     9    29    30    1
    10    30    31    1
    11    31    34    1
    12    34    35    1
    13    35    36   ar
    14    36    37   ar
    15    37    38   ar
    16    38    39    1
    17    38    40   ar
    18    40    41    1
    19    40    42   ar
    20    31    32    1
    21    32    33    1
    22     2     5    1
    23     5     6    1
    24     6     7    2
    25     7     8    1
    26     8     9    2
    27     8    10    1
    28    10    11    2
    29    11    12    1
    30    12    16    1
    31    16    17    2
    32    16    18    2
    33    16    19    1
    34    19    20    1
    35    20    21    1
    36    21    22    1
    37    12    13    2
    38    13    14    1
    39    14    15    1
    40    33    28    1
    41    15     5    2
    42    42    35   ar
    43    15    10    1
    44    22    19    1
    45     3     4    1
    46    25    26    1
@<TRIPOS>MOLECULE
*****
 42 46 0 0 0
SMALL
GASTEIGER

@<TRIPOS>ATOM
      1 O         145.1511  142.5134  161.3291 O.2     1  UNL1       -0.2701
      2 C         143.8705  141.7812  161.0565 C.2     1  UNL1        0.2469
      3 N         143.0415  142.1404  159.8591 N.am    1  UNL1       -0.2985
      4 H         142.2011  141.6598  159.6802 H       1  UNL1        0.1498
      5 C         143.4192  140.6898  161.9812 C.2     1  UNL1        0.0665
      6 C         143.5351  139.2547  161.5606 C.2     1  UNL1        0.0931
      7 N         143.0837  138.1633  162.4854 N.am    1  UNL1       -0.1740
      8 C         142.5164  138.5071  163.8307 C.2     1  UNL1        0.2688
      9 O         142.0650  137.4157  164.7554 O.2     1  UNL1       -0.2680
     10 C         142.4004  139.9423  164.2513 C.2     1  UNL1        0.0533
     11 C         141.8331  140.2860  165.5966 C.2     1  UNL1        0.0239
     12 C         141.7171  141.7212  166.0172 C.2     1  UNL1        0.1184
     13 C         142.1685  142.8125  165.0925 C.2     1  UNL1       -0.0015
     14 C         142.7358  142.4688  163.7471 C.3     1  UNL1        0.0540
     15 C         142.8518  141.0337  163.3266 C.2     1  UNL1       -0.0076
     16 S         141.1497  142.0650  167.3626 S.O2    1  UNL1        0.0630
     17 O         142.2821  141.3384  168.0257 O.2     1  UNL1       -0.1528
     18 O         140.0174  142.7916  166.6994 O.2     1  UNL1       -0.1528
     19 N         140.5825  142.4088  168.7079 N.3     1  UNL1       -0.1554
     20 C         139.8593  141.6485  169.7798 C.3     1  UNL1        0.0973
     21 C         139.7802  142.8949  170.6105 C.3     1  UNL1        0.0383
     22 C         140.5033  143.6552  169.5386 C.3     1  UNL1        0.0973
     23 C         143.4929  143.2318  158.9344 C.3     1  UNL1        0.1204
     24 C         142.4798  144.0858  158.2312 C.3     1  UNL1        0.1459
     25 O         142.4754  144.1647  156.7333 O.3     1  UNL1       -0.3813
     26 H         143.1862  143.6082  156.3782 H       1  UNL1        0.2105
     27 C         141.4711  144.8609  159.0260 C.3     1  UNL1        0.1034
     28 N         140.4637  144.1369  159.8690 N.3     1  UNL1       -0.2704
     29 C         139.5061  143.1739  159.2321 C.3     1  UNL1        0.0759
     30 C         138.4987  142.4498  160.0750 C.3     1  UNL1        0.0609
     31 C         138.4487  142.6887  161.5551 C.3     1  UNL1        0.1687
     32 C         139.4062  143.6517  162.1921 C.3     1  UNL1        0.0609
     33 C         140.4137  144.3758  161.3490 C.3     1  UNL1        0.0759
     34 O         137.4412  141.9647  162.3981 O.3     1  UNL1       -0.4790
     35 C         137.8419  140.7317  163.1525 C.ar    1  UNL1        0.1393
     36 C         138.1406  139.4625  162.4109 C.ar    1  UNL1        0.0378
     37 C         138.5413  138.2296  163.1653 C.ar    1  UNL1        0.0154
     38 C         138.6434  138.2657  164.6614 C.ar    1  UNL1        0.0684
     39 CL        139.0442  137.0327  165.4158 Cl      1  UNL1       -0.0814
     40 C         138.3448  139.5349  165.4030 C.ar    1  UNL1        0.0712
     41 CL        138.4469  139.5711  166.8991 Cl      1  UNL1       -0.0813
     42 C         137.9441  140.7679  164.6486 C.ar    1  UNL1        0.0491
@<TRIPOS>BOND
     1     1     2    2
     2     2     3   am
     3     3    23    1
     4    23    24    1
     5    24    25    1
     6    24    27    1
     7    27    28    1
     8    28    29    1
     9    29    30    1
    10    30    31    1
    11    31    34    1
    12    34    35    1
    13    35    36   ar
    14    36    37   ar
    15    37    38   ar
    16    38    39    1
    17    38    40   ar
    18    40    41    1
    19    40    42   ar
    20    31    32    1
    21    32    33    1
    22     2     5    1
    23     5     6    1
    24     6     7    2
    25     7     8    1
    26     8     9    2
    27     8    10    1
    28    10    11    2
    29    11    12    1
    30    12    16    1
    31    16    17    2
    32    16    18    2
    33    16    19    1
    34    19    20    1
    35    20    21    1
    36    21    22    1
    37    12    13    2
    38    13    14    1
    39    14    15    1
    40    33    28    1
    41    15     5    2
    42    42    35   ar
    43    15    10    1
    44    22    19    1
    45     3     4    1
    46    25    26    1
@<TRIPOS>MOLECULE
*****
 42 46 0 0 0
SMALL
GASTEIGER

@<TRIPOS>ATOM
      1 O         137.2415  138.4728  167.9430 O.2     1  UNL1       -0.2701
      2 C         138.3749  139.1033  167.1892 C.2     1  UNL1        0.2469
      3 N         139.3051  140.0504  167.8875 N.am    1  UNL1       -0.2985
      4 H         140.0490  140.4642  167.3928 H       1  UNL1        0.1498
      5 C         138.5780  138.7867  165.7371 C.2     1  UNL1        0.0665
      6 C         138.5280  137.3636  165.2657 C.2     1  UNL1        0.0931
      7 N         138.7311  137.0469  163.8137 N.am    1  UNL1       -0.1740
      8 C         138.9841  138.1533  162.8330 C.2     1  UNL1        0.2688
      9 O         139.1872  137.8367  161.3810 O.2     1  UNL1       -0.2680
     10 C         139.0341  139.5765  163.3044 C.2     1  UNL1        0.0533
     11 C         139.2871  140.6830  162.3237 C.2     1  UNL1        0.0239
     12 C         139.3370  142.1060  162.7951 C.2     1  UNL1        0.1184
     13 C         139.1340  142.4227  164.2472 C.2     1  UNL1       -0.0015
     14 C         138.8809  141.3163  165.2279 C.3     1  UNL1        0.0540
     15 C         138.8310  139.8932  164.7565 C.2     1  UNL1       -0.0076
     16 S         139.5900  143.2126  161.8145 S.O2    1  UNL1        0.0630
     17 O         138.2537  142.9580  161.1826 O.2     1  UNL1       -0.1528
     18 O         140.9264  143.4671  162.4464 O.2     1  UNL1       -0.1528
     19 N         139.8430  144.3190  160.8338 N.3     1  UNL1       -0.1554
     20 C         139.9597  144.4071  159.3410 C.3     1  UNL1        0.0973
     21 C         140.2008  145.8838  159.4469 C.3     1  UNL1        0.0383
     22 C         140.0840  145.7957  160.9398 C.3     1  UNL1        0.0973
     23 C         139.1021  140.3670  169.3396 C.3     1  UNL1        0.1204
     24 C         139.9666  141.3923  170.0117 C.3     1  UNL1        0.1459
     25 O         139.3411  142.4679  170.8494 O.3     1  UNL1       -0.3813
     26 H         138.3775  142.3566  170.8518 H       1  UNL1        0.2105
     27 C         141.4565  141.3418  169.8459 C.3     1  UNL1        0.1034
     28 N         142.0525  140.8027  168.5794 N.3     1  UNL1       -0.2704
     29 C         142.1583  141.6801  167.3674 C.3     1  UNL1        0.0759
     30 C         142.7542  141.1410  166.1009 C.3     1  UNL1        0.0609
     31 C         143.2444  139.7243  166.0463 C.3     1  UNL1        0.1687
     32 C         143.1386  138.8469  167.2583 C.3     1  UNL1        0.0609
     33 C         142.5426  139.3861  168.5249 C.3     1  UNL1        0.0759
     34 O         143.8403  139.1852  164.7798 O.3     1  UNL1       -0.4790
     35 C         143.9760  140.0722  163.5778 C.ar    1  UNL1        0.1393
     36 C         145.1402  141.0116  163.4665 C.ar    1  UNL1        0.0378
     37 C         145.2759  141.8986  162.2645 C.ar    1  UNL1        0.0154
     38 C         144.2475  141.8463  161.1738 C.ar    1  UNL1        0.0684
     39 CL        144.3833  142.7333  159.9719 Cl      1  UNL1       -0.0814
     40 C         143.0834  140.9070  161.2851 C.ar    1  UNL1        0.0712
     41 CL        142.0550  140.8546  160.1944 Cl      1  UNL1       -0.0813
     42 C         142.9477  140.0199  162.4871 C.ar    1  UNL1        0.0491
@<TRIPOS>BOND
     1     1     2    2
     2     2     3   am
     3     3    23    1
     4    23    24    1
     5    24    25    1
     6    24    27    1
     7    27    28    1
     8    28    29    1
     9    29    30    1
    10    30    31    1
    11    31    34    1
    12    34    35    1
    13    35    36   ar
    14    36    37   ar
    15    37    38   ar
    16    38    39    1
    17    38    40   ar
    18    40    41    1
    19    40    42   ar
    20    31    32    1
    21    32    33    1
    22     2     5    1
    23     5     6    1
    24     6     7    2
    25     7     8    1
    26     8     9    2
    27     8    10    1
    28    10    11    2
    29    11    12    1
    30    12    16    1
    31    16    17    2
    32    16    18    2
    33    16    19    1
    34    19    20    1
    35    20    21    1
    36    21    22    1
    37    12    13    2
    38    13    14    1
    39    14    15    1
    40    33    28    1
    41    15     5    2
    42    42    35   ar
    43    15    10    1
    44    22    19    1
    45     3     4    1
    46    25    26    1
@<TRIPOS>MOLECULE
*****
 42 46 0 0 0
SMALL
GASTEIGER

@<TRIPOS>ATOM
      1 O         140.4212  145.4194  160.5377 O.2     1  UNL1       -0.2701
      2 C         140.4611  143.9234  160.4356 C.2     1  UNL1        0.2469
      3 N         141.2744  143.2664  159.3601 N.am    1  UNL1       -0.2985
      4 H         141.3006  142.2845  159.2931 H       1  UNL1        0.1498
      5 C         139.6875  143.0844  161.4091 C.2     1  UNL1        0.0665
      6 C         138.3379  142.5497  161.0316 C.2     1  UNL1        0.0931
      7 N         137.5644  141.7107  162.0051 N.am    1  UNL1       -0.1740
      8 C         138.1405  141.4063  163.3562 C.2     1  UNL1        0.2688
      9 O         137.3670  140.5673  164.3297 O.2     1  UNL1       -0.2680
     10 C         139.4902  141.9410  163.7338 C.2     1  UNL1        0.0533
     11 C         140.0663  141.6367  165.0848 C.2     1  UNL1        0.0239
     12 C         141.4159  142.1713  165.4624 C.2     1  UNL1        0.1184
     13 C         142.1895  143.0103  164.4889 C.2     1  UNL1       -0.0015
     14 C         141.6133  143.3147  163.1378 C.3     1  UNL1        0.0540
     15 C         140.2637  142.7800  162.7603 C.2     1  UNL1       -0.0076
     16 S         141.9921  141.8670  166.8135 S.O2    1  UNL1        0.0630
     17 O         140.6514  142.1113  167.4402 O.2     1  UNL1       -0.1528
     18 O         143.3328  141.6227  166.1868 O.2     1  UNL1       -0.1528
     19 N         142.5682  141.5627  168.1646 N.3     1  UNL1       -0.1554
     20 C         143.3129  142.3498  169.2019 C.3     1  UNL1        0.0973
     21 C         143.3830  141.1323  170.0754 C.3     1  UNL1        0.0383
     22 C         142.6383  140.3453  169.0381 C.3     1  UNL1        0.0973
     23 C         142.0480  144.1054  158.3866 C.3     1  UNL1        0.1204
     24 C         143.0778  143.4691  157.5008 C.3     1  UNL1        0.1459
     25 O         142.8515  143.3964  156.0198 O.3     1  UNL1       -0.3813
     26 H         141.9981  143.8032  155.8028 H       1  UNL1        0.2105
     27 C         144.3339  142.9053  158.0962 C.3     1  UNL1        0.1034
     28 N         144.2519  141.8769  159.1850 N.3     1  UNL1       -0.2704
     29 C         143.9085  140.4557  158.8501 C.3     1  UNL1        0.0759
     30 C         143.8265  139.4273  159.9389 C.3     1  UNL1        0.0609
     31 C         144.0880  139.8201  161.3628 C.3     1  UNL1        0.1687
     32 C         144.4315  141.2414  161.6978 C.3     1  UNL1        0.0609
     33 C         144.5134  142.2698  160.6088 C.3     1  UNL1        0.0759
     34 O         144.0060  138.7918  162.4517 O.3     1  UNL1       -0.4790
     35 C         142.7027  138.5419  163.1508 C.ar    1  UNL1        0.1393
     36 C         142.6543  138.4837  164.6488 C.ar    1  UNL1        0.0378
     37 C         141.3509  138.2338  165.3480 C.ar    1  UNL1        0.0154
     38 C         140.0959  138.0423  164.5491 C.ar    1  UNL1        0.0684
     39 CL        138.7925  137.7925  165.2482 Cl      1  UNL1       -0.0814
     40 C         140.1443  138.1006  163.0510 C.ar    1  UNL1        0.0712
     41 CL        138.8893  137.9090  162.2520 Cl      1  UNL1       -0.0813
     42 C         141.4477  138.3504  162.3519 C.ar    1  UNL1        0.0491
@<TRIPOS>BOND
     1     1     2    2
     2     2     3   am
     3     3    23    1
     4    23    24    1
     5    24    25    1
     6    24    27    1
     7    27    28    1
     8    28    29    1
     9    29    30    1
    10    30    31    1
    11    31    34    1
    12    34    35    1
    13    35    36   ar
    14    36    37   ar
    15    37    38   ar
    16    38    39    1
    17    38    40   ar
    18    40    41    1
    19    40    42   ar
    20    31    32    1
    21    32    33    1
    22     2     5    1
    23     5     6    1
    24     6     7    2
    25     7     8    1
    26     8     9    2
    27     8    10    1
    28    10    11    2
    29    11    12    1
    30    12    16    1
    31    16    17    2
    32    16    18    2
    33    16    19    1
    34    19    20    1
    35    20    21    1
    36    21    22    1
    37    12    13    2
    38    13    14    1
    39    14    15    1
    40    33    28    1
    41    15     5    2
    42    42    35   ar
    43    15    10    1
    44    22    19    1
    45     3     4    1
    46    25    26    1
@<TRIPOS>MOLECULE
*****
 42 46 0 0 0
SMALL
GASTEIGER

@<TRIPOS>ATOM
      1 O         137.7302  139.1147  166.0719 O.2     1  UNL1       -0.2701
      2 C         138.5936  140.3040  165.7716 C.2     1  UNL1        0.2469
      3 N         139.5997  140.7741  166.7799 N.am    1  UNL1       -0.2985
      4 H         140.1663  141.5547  166.5828 H       1  UNL1        0.1498
      5 C         138.4509  141.0231  164.4630 C.2     1  UNL1        0.0665
      6 C         137.7276  142.3358  164.4036 C.2     1  UNL1        0.0931
      7 N         137.5849  143.0549  163.0949 N.am    1  UNL1       -0.1740
      8 C         138.1654  142.4613  161.8457 C.2     1  UNL1        0.2688
      9 O         138.0227  143.1804  160.5371 O.2     1  UNL1       -0.2680
     10 C         138.8887  141.1485  161.9051 C.2     1  UNL1        0.0533
     11 C         139.4691  140.5548  160.6559 C.2     1  UNL1        0.0239
     12 C         140.1924  139.2421  160.7153 C.2     1  UNL1        0.1184
     13 C         140.3351  138.5229  162.0240 C.2     1  UNL1       -0.0015
     14 C         139.7546  139.1166  163.2732 C.3     1  UNL1        0.0540
     15 C         139.0314  140.4294  163.2137 C.2     1  UNL1       -0.0076
     16 S         140.7729  138.6483  159.4661 S.O2    1  UNL1        0.0630
     17 O         141.9290  138.1131  160.2578 O.2     1  UNL1       -0.1528
     18 O         139.6168  139.1836  158.6744 O.2     1  UNL1       -0.1528
     19 N         141.3534  138.0546  158.2169 N.3     1  UNL1       -0.1554
     20 C         140.8230  137.7266  156.8527 C.3     1  UNL1        0.0973
     21 C         142.1744  137.2150  156.4503 C.3     1  UNL1        0.0383
     22 C         142.7048  137.5430  157.8145 C.3     1  UNL1        0.0973
     23 C         139.7424  140.0550  168.0885 C.3     1  UNL1        0.1204
     24 C         141.0922  139.9260  168.7301 C.3     1  UNL1        0.1459
     25 O         141.2463  140.1521  170.2049 O.3     1  UNL1       -0.3813
     26 H         140.3835  140.3713  170.5903 H       1  UNL1        0.2105
     27 C         142.2878  139.5709  167.8968 C.3     1  UNL1        0.1034
     28 N         142.7499  140.5001  166.8138 N.3     1  UNL1       -0.2704
     29 C         142.9168  139.9936  165.4117 C.3     1  UNL1        0.0759
     30 C         143.3789  140.9228  164.3287 C.3     1  UNL1        0.0609
     31 C         143.6741  142.3585  164.6477 C.3     1  UNL1        0.1687
     32 C         143.5072  142.8650  166.0497 C.3     1  UNL1        0.0609
     33 C         143.0451  141.9357  167.1328 C.3     1  UNL1        0.0759
     34 O         144.1362  143.2877  163.5646 O.3     1  UNL1       -0.4790
     35 C         143.1853  143.7136  162.4856 C.ar    1  UNL1        0.1393
     36 C         143.3544  143.1937  161.0888 C.ar    1  UNL1        0.0378
     37 C         142.4035  143.6196  160.0097 C.ar    1  UNL1        0.0154
     38 C         141.2835  144.5654  160.3274 C.ar    1  UNL1        0.0684
     39 CL        140.3326  144.9912  159.2483 Cl      1  UNL1       -0.0814
     40 C         141.1144  145.0853  161.7242 C.ar    1  UNL1        0.0712
     41 CL        139.9943  146.0312  162.0419 Cl      1  UNL1       -0.0813
     42 C         142.0653  144.6594  162.8032 C.ar    1  UNL1        0.0491
@<TRIPOS>BOND
     1     1     2    2
     2     2     3   am
     3     3    23    1
     4    23    24    1
     5    24    25    1
     6    24    27    1
     7    27    28    1
     8    28    29    1
     9    29    30    1
    10    30    31    1
    11    31    34    1
    12    34    35    1
    13    35    36   ar
    14    36    37   ar
    15    37    38   ar
    16    38    39    1
    17    38    40   ar
    18    40    41    1
    19    40    42   ar
    20    31    32    1
    21    32    33    1
    22     2     5    1
    23     5     6    1
    24     6     7    2
    25     7     8    1
    26     8     9    2
    27     8    10    1
    28    10    11    2
    29    11    12    1
    30    12    16    1
    31    16    17    2
    32    16    18    2
    33    16    19    1
    34    19    20    1
    35    20    21    1
    36    21    22    1
    37    12    13    2
    38    13    14    1
    39    14    15    1
    40    33    28    1
    41    15     5    2
    42    42    35   ar
    43    15    10    1
    44    22    19    1
    45     3     4    1
    46    25    26    1
@<TRIPOS>MOLECULE
*****
 42 46 0 0 0
SMALL
GASTEIGER

@<TRIPOS>ATOM
      1 O         143.8975  144.6505  162.1900 O.2     1  UNL1       -0.2701
      2 C         142.5966  144.0145  161.7981 C.2     1  UNL1        0.2469
      3 N         142.5164  143.1729  160.5591 N.am    1  UNL1       -0.2985
      4 H         141.6627  142.7555  160.3020 H       1  UNL1        0.1498
      5 C         141.3760  144.2203  162.6453 C.2     1  UNL1        0.0665
      6 C         140.2203  145.0158  162.1149 C.2     1  UNL1        0.0931
      7 N         138.9996  145.2216  162.9621 N.am    1  UNL1       -0.1740
      8 C         138.9348  144.6319  164.3397 C.2     1  UNL1        0.2688
      9 O         137.7141  144.8377  165.1869 O.2     1  UNL1       -0.2680
     10 C         140.0905  143.8363  164.8702 C.2     1  UNL1        0.0533
     11 C         140.0256  143.2466  166.2479 C.2     1  UNL1        0.0239
     12 C         141.1814  142.4511  166.7783 C.2     1  UNL1        0.1184
     13 C         142.4020  142.2453  165.9311 C.2     1  UNL1       -0.0015
     14 C         142.4669  142.8351  164.5535 C.3     1  UNL1        0.0540
     15 C         141.3111  143.6306  164.0230 C.2     1  UNL1       -0.0076
     16 S         141.1165  141.8613  168.1561 S.O2    1  UNL1        0.0630
     17 O         141.8215  140.6326  167.6632 O.2     1  UNL1       -0.1528
     18 O         140.4115  143.0901  168.6489 O.2     1  UNL1       -0.1528
     19 N         141.0517  141.2716  169.5337 N.3     1  UNL1       -0.1554
     20 C         141.8340  141.4487  170.8012 C.3     1  UNL1        0.0973
     21 C         140.9600  140.4375  171.4820 C.3     1  UNL1        0.0383
     22 C         140.1777  140.2603  170.2145 C.3     1  UNL1        0.0973
     23 C         143.7371  142.9671  159.7119 C.3     1  UNL1        0.1204
     24 C         143.6071  142.8682  158.2208 C.3     1  UNL1        0.1459
     25 O         144.8134  143.0536  157.3489 O.3     1  UNL1       -0.3813
     26 H         145.5896  143.2284  157.9037 H       1  UNL1        0.2105
     27 C         142.2707  142.5839  157.6017 C.3     1  UNL1        0.1034
     28 N         141.1967  141.9170  158.4089 N.3     1  UNL1       -0.2704
     29 C         141.3234  140.4675  158.7735 C.3     1  UNL1        0.0759
     30 C         140.2494  139.8006  159.5808 C.3     1  UNL1        0.0609
     31 C         139.0487  140.5831  160.0235 C.3     1  UNL1        0.1687
     32 C         138.9221  142.0326  159.6590 C.3     1  UNL1        0.0609
     33 C         139.9961  142.6996  158.8516 C.3     1  UNL1        0.0759
     34 O         137.9747  139.9162  160.8308 O.3     1  UNL1       -0.4790
     35 C         138.1117  139.8126  162.3209 C.ar    1  UNL1        0.1393
     36 C         137.7675  140.9863  163.1892 C.ar    1  UNL1        0.0378
     37 C         137.9044  140.8827  164.6793 C.ar    1  UNL1        0.0154
     38 C         138.3855  139.6053  165.3012 C.ar    1  UNL1        0.0684
     39 CL        138.5225  139.5017  166.7914 Cl      1  UNL1       -0.0814
     40 C         138.7298  138.4316  164.4330 C.ar    1  UNL1        0.0712
     41 CL        139.2110  137.1542  165.0549 Cl      1  UNL1       -0.0813
     42 C         138.5928  138.5352  162.9429 C.ar    1  UNL1        0.0491
@<TRIPOS>BOND
     1     1     2    2
     2     2     3   am
     3     3    23    1
     4    23    24    1
     5    24    25    1
     6    24    27    1
     7    27    28    1
     8    28    29    1
     9    29    30    1
    10    30    31    1
    11    31    34    1
    12    34    35    1
    13    35    36   ar
    14    36    37   ar
    15    37    38   ar
    16    38    39    1
    17    38    40   ar
    18    40    41    1
    19    40    42   ar
    20    31    32    1
    21    32    33    1
    22     2     5    1
    23     5     6    1
    24     6     7    2
    25     7     8    1
    26     8     9    2
    27     8    10    1
    28    10    11    2
    29    11    12    1
    30    12    16    1
    31    16    17    2
    32    16    18    2
    33    16    19    1
    34    19    20    1
    35    20    21    1
    36    21    22    1
    37    12    13    2
    38    13    14    1
    39    14    15    1
    40    33    28    1
    41    15     5    2
    42    42    35   ar
    43    15    10    1
    44    22    19    1
    45     3     4    1
    46    25    26    1
@<TRIPOS>MOLECULE
*****
 42 46 0 0 0
SMALL
GASTEIGER

@<TRIPOS>ATOM
      1 O         144.3399  137.6536  161.4502 O.2     1  UNL1       -0.2701
      2 C         143.6919  138.9965  161.2858 C.2     1  UNL1        0.2469
      3 N         142.7471  139.2390  160.1464 N.am    1  UNL1       -0.2985
      4 H         142.3219  140.1203  160.0385 H       1  UNL1        0.1498
      5 C         143.9889  140.0969  162.2610 C.2     1  UNL1        0.0665
      6 C         144.8969  141.2238  161.8666 C.2     1  UNL1        0.0931
      7 N         145.1939  142.3241  162.8418 N.am    1  UNL1       -0.1740
      8 C         144.5828  142.2976  164.2114 C.2     1  UNL1        0.2688
      9 O         144.8798  143.3980  165.1866 O.2     1  UNL1       -0.2680
     10 C         143.6748  141.1707  164.6059 C.2     1  UNL1        0.0533
     11 C         143.0638  141.1441  165.9755 C.2     1  UNL1        0.0239
     12 C         142.1558  140.0172  166.3700 C.2     1  UNL1        0.1184
     13 C         141.8588  138.9169  165.3948 C.2     1  UNL1       -0.0015
     14 C         142.4699  138.9434  164.0251 C.3     1  UNL1        0.0540
     15 C         143.3778  140.0703  163.6307 C.2     1  UNL1       -0.0076
     16 S         141.5447  139.9906  167.7396 S.O2    1  UNL1        0.0630
     17 O         142.9116  139.8803  168.3473 O.2     1  UNL1       -0.1528
     18 O         140.1778  140.1010  167.1320 O.2     1  UNL1       -0.1528
     19 N         140.9337  139.9641  169.1093 N.3     1  UNL1       -0.1554
     20 C         139.5746  140.2607  169.6703 C.3     1  UNL1        0.0973
     21 C         140.0696  139.9265  171.0463 C.3     1  UNL1        0.0383
     22 C         141.4288  139.6299  170.4852 C.3     1  UNL1        0.0973
     23 C         142.4501  138.1386  159.1712 C.3     1  UNL1        0.1204
     24 C         142.3022  138.4500  157.7113 C.3     1  UNL1        0.1459
     25 O         143.3529  138.0027  156.7387 O.3     1  UNL1       -0.3813
     26 H         144.0534  137.5295  157.2145 H       1  UNL1        0.2105
     27 C         141.1035  139.2088  157.2240 C.3     1  UNL1        0.1034
     28 N         140.3632  140.1210  158.1567 N.3     1  UNL1       -0.2704
     29 C         140.7881  141.5523  158.3002 C.3     1  UNL1        0.0759
     30 C         140.0479  142.4645  159.2328 C.3     1  UNL1        0.0609
     31 C         138.8826  141.9453  160.0221 C.3     1  UNL1        0.1687
     32 C         138.4578  140.5139  159.8786 C.3     1  UNL1        0.0609
     33 C         139.1981  139.6017  158.9458 C.3     1  UNL1        0.0759
     34 O         138.1424  142.8575  160.9547 O.3     1  UNL1       -0.4790
     35 C         138.5864  142.9927  162.3811 C.ar    1  UNL1        0.1393
     36 C         139.7124  142.1481  162.8994 C.ar    1  UNL1        0.0378
     37 C         140.1564  142.2833  164.3258 C.ar    1  UNL1        0.0154
     38 C         139.4745  143.2632  165.2339 C.ar    1  UNL1        0.0684
     39 CL        139.9185  143.3984  166.6602 Cl      1  UNL1       -0.0814
     40 C         138.3485  144.1078  164.7156 C.ar    1  UNL1        0.0712
     41 CL        137.6664  145.0878  165.6237 Cl      1  UNL1       -0.0813
     42 C         137.9044  143.9726  163.2892 C.ar    1  UNL1        0.0491
@<TRIPOS>BOND
     1     1     2    2
     2     2     3   am
     3     3    23    1
     4    23    24    1
     5    24    25    1
     6    24    27    1
     7    27    28    1
     8    28    29    1
     9    29    30    1
    10    30    31    1
    11    31    34    1
    12    34    35    1
    13    35    36   ar
    14    36    37   ar
    15    37    38   ar
    16    38    39    1
    17    38    40   ar
    18    40    41    1
    19    40    42   ar
    20    31    32    1
    21    32    33    1
    22     2     5    1
    23     5     6    1
    24     6     7    2
    25     7     8    1
    26     8     9    2
    27     8    10    1
    28    10    11    2
    29    11    12    1
    30    12    16    1
    31    16    17    2
    32    16    18    2
    33    16    19    1
    34    19    20    1
    35    20    21    1
    36    21    22    1
    37    12    13    2
    38    13    14    1
    39    14    15    1
    40    33    28    1
    41    15     5    2
    42    42    35   ar
    43    15    10    1
    44    22    19    1
    45     3     4    1
    46    25    26    1
@<TRIPOS>MOLECULE
*****
 42 46 0 0 0
SMALL
GASTEIGER

@<TRIPOS>ATOM
      1 O         141.8396  145.3228  160.3512 O.2     1  UNL1       -0.2701
      2 C         142.0732  143.8429  160.2779 C.2     1  UNL1        0.2469
      3 N         141.3521  143.0197  159.2521 N.am    1  UNL1       -0.2985
      4 H         141.5055  142.0484  159.2040 H       1  UNL1        0.1498
      5 C         143.0279  143.1863  161.2305 C.2     1  UNL1        0.0665
      6 C         144.3589  142.6978  160.7408 C.2     1  UNL1        0.0931
      7 N         145.3136  142.0412  161.6934 N.am    1  UNL1       -0.1740
      8 C         144.9373  141.8730  163.1356 C.2     1  UNL1        0.2688
      9 O         145.8920  141.2164  164.0882 O.2     1  UNL1       -0.2680
     10 C         143.6062  142.3614  163.6254 C.2     1  UNL1        0.0533
     11 C         143.2299  142.1932  165.0676 C.2     1  UNL1        0.0239
     12 C         141.8989  142.6816  165.5572 C.2     1  UNL1        0.1184
     13 C         140.9442  143.3383  164.6047 C.2     1  UNL1       -0.0015
     14 C         141.3205  143.5065  163.1625 C.3     1  UNL1        0.0540
     15 C         142.6515  143.0181  162.6728 C.2     1  UNL1       -0.0076
     16 S         141.5226  142.5134  166.9995 S.O2    1  UNL1        0.0630
     17 O         142.9529  142.2144  167.3379 O.2     1  UNL1       -0.1528
     18 O         140.0922  142.8125  166.6612 O.2     1  UNL1       -0.1528
     19 N         141.1463  142.3452  168.4418 N.3     1  UNL1       -0.1554
     20 C         141.5985  142.9575  169.7343 C.3     1  UNL1        0.0973
     21 C         140.6141  142.1074  170.4814 C.3     1  UNL1        0.0383
     22 C         140.1618  141.4951  169.1889 C.3     1  UNL1        0.0973
     23 C         140.3974  143.6763  158.2996 C.3     1  UNL1        0.1204
     24 C         139.3914  142.8484  157.5562 C.3     1  UNL1        0.1459
     25 O         139.6106  142.5231  156.1084 O.3     1  UNL1       -0.3813
     26 H         140.4433  142.9212  155.8100 H       1  UNL1        0.2105
     27 C         138.1661  142.3459  158.2606 C.3     1  UNL1        0.1034
     28 N         138.2943  141.6450  159.5805 N.3     1  UNL1       -0.2704
     29 C         138.1882  142.4250  160.8574 C.3     1  UNL1        0.0759
     30 C         138.3164  141.7240  162.1773 C.3     1  UNL1        0.0609
     31 C         138.5506  140.2430  162.2204 C.3     1  UNL1        0.1687
     32 C         138.6567  139.4630  160.9436 C.3     1  UNL1        0.0609
     33 C         138.5285  140.1640  159.6236 C.3     1  UNL1        0.0759
     34 O         138.6788  139.5421  163.5403 O.3     1  UNL1       -0.4790
     35 C         140.0366  139.2752  164.1191 C.ar    1  UNL1        0.1393
     36 C         140.2219  139.2292  165.6069 C.ar    1  UNL1        0.0378
     37 C         141.5798  138.9623  166.1856 C.ar    1  UNL1        0.0154
     38 C         142.7524  138.7415  165.2766 C.ar    1  UNL1        0.0684
     39 CL        144.1102  138.4747  165.8554 Cl      1  UNL1       -0.0814
     40 C         142.5670  138.7876  163.7889 C.ar    1  UNL1        0.0712
     41 CL        143.7396  138.5668  162.8798 Cl      1  UNL1       -0.0813
     42 C         141.2092  139.0544  163.2101 C.ar    1  UNL1        0.0491
@<TRIPOS>BOND
     1     1     2    2
     2     2     3   am
     3     3    23    1
     4    23    24    1
     5    24    25    1
     6    24    27    1
     7    27    28    1
     8    28    29    1
     9    29    30    1
    10    30    31    1
    11    31    34    1
    12    34    35    1
    13    35    36   ar
    14    36    37   ar
    15    37    38   ar
    16    38    39    1
    17    38    40   ar
    18    40    41    1
    19    40    42   ar
    20    31    32    1
    21    32    33    1
    22     2     5    1
    23     5     6    1
    24     6     7    2
    25     7     8    1
    26     8     9    2
    27     8    10    1
    28    10    11    2
    29    11    12    1
    30    12    16    1
    31    16    17    2
    32    16    18    2
    33    16    19    1
    34    19    20    1
    35    20    21    1
    36    21    22    1
    37    12    13    2
    38    13    14    1
    39    14    15    1
    40    33    28    1
    41    15     5    2
    42    42    35   ar
    43    15    10    1
    44    22    19    1
    45     3     4    1
    46    25    26    1
@<TRIPOS>MOLECULE
*****
 42 46 0 0 0
SMALL
GASTEIGER

@<TRIPOS>ATOM
      1 O         141.8920  144.1413  161.7253 O.2     1  UNL1       -0.2701
      2 C         140.7332  143.4614  161.0583 C.2     1  UNL1        0.2469
      3 N         140.1584  144.0270  159.7935 N.am    1  UNL1       -0.2985
      4 H         139.3979  143.5807  159.3557 H       1  UNL1        0.1498
      5 C         140.1492  142.2158  161.6560 C.2     1  UNL1        0.0665
      6 C         139.4858  141.2002  160.7737 C.2     1  UNL1        0.0931
      7 N         138.9018  139.9546  161.3715 N.am    1  UNL1       -0.1740
      8 C         138.9811  139.7245  162.8516 C.2     1  UNL1        0.2688
      9 O         138.3971  138.4789  163.4494 O.2     1  UNL1       -0.2680
     10 C         139.6445  140.7401  163.7340 C.2     1  UNL1        0.0533
     11 C         139.7239  140.5100  165.2141 C.2     1  UNL1        0.0239
     12 C         140.3873  141.5256  166.0964 C.2     1  UNL1        0.1184
     13 C         140.9713  142.7712  165.4986 C.2     1  UNL1       -0.0015
     14 C         140.8919  143.0013  164.0185 C.3     1  UNL1        0.0540
     15 C         140.2285  141.9857  163.1362 C.2     1  UNL1       -0.0076
     16 S         140.4667  141.2956  167.5766 S.O2    1  UNL1        0.0630
     17 O         141.3877  142.4719  167.7100 O.2     1  UNL1       -0.1528
     18 O         139.5456  140.1192  167.4432 O.2     1  UNL1       -0.1528
     19 N         140.5461  141.0656  169.0567 N.3     1  UNL1       -0.1554
     20 C         140.0354  141.7837  170.2706 C.3     1  UNL1        0.0973
     21 C         140.6584  140.7404  171.1499 C.3     1  UNL1        0.0383
     22 C         141.1690  140.0222  169.9361 C.3     1  UNL1        0.0973
     23 C         140.7425  145.2726  159.1957 C.3     1  UNL1        0.1204
     24 C         141.7987  145.1717  158.1354 C.3     1  UNL1        0.1459
     25 O         142.5817  146.3880  157.7385 O.3     1  UNL1       -0.3813
     26 H         142.2824  147.1494  158.2597 H       1  UNL1        0.2105
     27 C         142.0720  143.8544  157.4720 C.3     1  UNL1        0.1034
     28 N         142.5959  142.7031  158.2782 N.3     1  UNL1       -0.2704
     29 C         143.7452  142.9083  159.2199 C.3     1  UNL1        0.0759
     30 C         144.2691  141.7569  160.0261 C.3     1  UNL1        0.0609
     31 C         143.6435  140.4003  159.8905 C.3     1  UNL1        0.1687
     32 C         142.4941  140.1951  158.9488 C.3     1  UNL1        0.0609
     33 C         141.9703  141.3465  158.1427 C.3     1  UNL1        0.0759
     34 O         144.1674  139.2490  160.6967 O.3     1  UNL1       -0.4790
     35 C         143.8317  139.1400  162.1546 C.ar    1  UNL1        0.1393
     36 C         144.5954  139.9469  163.1624 C.ar    1  UNL1        0.0378
     37 C         144.2597  139.8378  164.6203 C.ar    1  UNL1        0.0154
     38 C         143.1605  138.9219  165.0704 C.ar    1  UNL1        0.0684
     39 CL        142.8248  138.8129  166.5283 Cl      1  UNL1       -0.0814
     40 C         142.3968  138.1150  164.0626 C.ar    1  UNL1        0.0712
     41 CL        141.2975  137.1990  164.5127 Cl      1  UNL1       -0.0813
     42 C         142.7324  138.2240  162.6047 C.ar    1  UNL1        0.0491
@<TRIPOS>BOND
     1     1     2    2
     2     2     3   am
     3     3    23    1
     4    23    24    1
     5    24    25    1
     6    24    27    1
     7    27    28    1
     8    28    29    1
     9    29    30    1
    10    30    31    1
    11    31    34    1
    12    34    35    1
    13    35    36   ar
    14    36    37   ar
    15    37    38   ar
    16    38    39    1
    17    38    40   ar
    18    40    41    1
    19    40    42   ar
    20    31    32    1
    21    32    33    1
    22     2     5    1
    23     5     6    1
    24     6     7    2
    25     7     8    1
    26     8     9    2
    27     8    10    1
    28    10    11    2
    29    11    12    1
    30    12    16    1
    31    16    17    2
    32    16    18    2
    33    16    19    1
    34    19    20    1
    35    20    21    1
    36    21    22    1
    37    12    13    2
    38    13    14    1
    39    14    15    1
    40    33    28    1
    41    15     5    2
    42    42    35   ar
    43    15    10    1
    44    22    19    1
    45     3     4    1
    46    25    26    1
