@<TRIPOS>MOLECULE
*****
 31 33 0 0 0
SMALL
GASTEIGER

@<TRIPOS>ATOM
      1 C         139.7164  142.9252  164.6549 C.ar    1  UNL1        0.0826
      2 C         140.8780  143.0839  163.7192 C.ar    1  UNL1        0.0548
      3 C         140.7717  144.4334  163.0731 C.ar    1  UNL1        0.1543
      4 N         139.5443  145.1088  163.6094 N.ar    1  UNL1       -0.1574
      5 N         138.8921  144.1766  164.5870 N.ar    1  UNL1       -0.2743
      6 H         138.0678  144.3548  165.0949 H       1  UNL1        0.1890
      7 C         140.1886  141.5144  166.7848 C.ar    1  UNL1        0.1430
      8 C         139.9015  140.3148  167.6384 C.ar    1  UNL1        0.0372
      9 C         138.8553  139.3266  167.2158 C.ar    1  UNL1        0.0062
     10 C         138.0960  139.5378  165.9396 C.ar    1  UNL1        0.0372
     11 C         138.3831  140.7373  165.0859 C.ar    1  UNL1        0.1428
     12 C         139.4293  141.7256  165.5086 C.ar    1  UNL1        0.0849
     13 C         142.6834  142.1134  167.1936 C.3     1  UNL1        0.2525
     14 O         141.2349  142.5026  167.2075 O.3     1  UNL1       -0.4713
     15 O         137.6238  140.9486  163.8096 O.3     1  UNL1       -0.4753
     16 C         137.9814  140.1599  162.5849 C.3     1  UNL1        0.2068
     17 C         137.9592  140.8170  161.2366 C.3     1  UNL1        0.0641
     18 C         138.3382  142.2618  161.1001 C.3     1  UNL1        0.0690
     19 N         137.5701  143.3124  161.8460 N.3     1  UNL1       -0.3210
     20 H         136.6150  143.3522  161.4901 H       1  UNL1        0.1189
     21 H         138.0194  144.2189  161.7158 H       1  UNL1        0.1189
     22 N         141.7253  145.0070  162.0672 N.pl3   1  UNL1       -0.2807
     23 H         141.9107  145.9738  162.0602 H       1  UNL1        0.1551
     24 C         142.3963  144.1074  161.0720 C.ar    1  UNL1        0.1527
     25 C         141.7177  143.7877  159.7730 C.ar    1  UNL1        0.1340
     26 N         142.3888  142.8882  158.7778 N.ar    1  UNL1       -0.2290
     27 C         143.7384  142.3083  159.0815 C.ar    1  UNL1        0.1683
     28 C         144.4169  142.6279  160.3805 C.ar    1  UNL1        0.1299
     29 N         143.7459  143.5275  161.3757 N.ar    1  UNL1       -0.2251
     30 C         144.4095  141.4087  158.0863 C.1     1  UNL1        0.1214
     31 N         145.0805  140.5091  157.0911 N.1     1  UNL1       -0.1892
@<TRIPOS>BOND
     1    13    14    1
     2    14     7    1
     3     7     8   ar
     4     8     9   ar
     5     9    10   ar
     6    10    11   ar
     7    11    15    1
     8    15    16    1
     9    16    17    1
    10    17    18    1
    11    18    19    1
    12    11    12   ar
    13    12     1    1
    14     1     2   ar
    15     2     3   ar
    16     3    22    1
    17    22    24    1
    18    24    25   ar
    19    25    26   ar
    20    26    27   ar
    21    27    30    1
    22    30    31    3
    23    27    28   ar
    24    28    29   ar
    25     3     4   ar
    26     4     5   ar
    27    12     7   ar
    28     5     1   ar
    29    29    24   ar
    30    19    20    1
    31    19    21    1
    32    22    23    1
    33     5     6    1
@<TRIPOS>MOLECULE
*****
 31 33 0 0 0
SMALL
GASTEIGER

@<TRIPOS>ATOM
      1 C         142.8827  143.5161  163.9374 C.ar    1  UNL1        0.0826
      2 C         142.4814  142.8747  165.2326 C.ar    1  UNL1        0.0548
      3 C         143.6075  143.0539  166.2071 C.ar    1  UNL1        0.1543
      4 N         144.7049  143.8061  165.5142 N.ar    1  UNL1       -0.1574
      5 N         144.2569  144.0918  164.1114 N.ar    1  UNL1       -0.2743
      6 H         144.7740  144.5726  163.4254 H       1  UNL1        0.1890
      7 C         140.7328  144.2803  162.6947 C.ar    1  UNL1        0.1430
      8 C         139.9053  144.3363  161.4449 C.ar    1  UNL1        0.0372
      9 C         140.4000  143.6841  160.1880 C.ar    1  UNL1        0.0062
     10 C         141.7223  142.9759  160.1809 C.ar    1  UNL1        0.0372
     11 C         142.5498  142.9199  161.4307 C.ar    1  UNL1        0.1428
     12 C         142.0551  143.5721  162.6876 C.ar    1  UNL1        0.0849
     13 C         138.9012  144.5540  164.5169 C.3     1  UNL1        0.2525
     14 O         140.2381  144.9325  163.9517 O.3     1  UNL1       -0.4713
     15 O         143.8721  142.2117  161.4236 O.3     1  UNL1       -0.4753
     16 C         143.9284  140.7263  161.6242 C.3     1  UNL1        0.2068
     17 C         144.1878  140.1633  162.9901 C.3     1  UNL1        0.0641
     18 C         145.3439  140.6675  163.8020 C.3     1  UNL1        0.0690
     19 N         146.1748  141.8091  163.2957 N.3     1  UNL1       -0.3210
     20 H         146.6711  141.5207  162.4526 H       1  UNL1        0.1189
     21 H         146.8491  142.0822  164.0106 H       1  UNL1        0.1189
     22 N         143.6321  142.5665  167.6255 N.pl3   1  UNL1       -0.2807
     23 H         144.4570  142.6417  168.1576 H       1  UNL1        0.1551
     24 C         142.3999  141.9645  168.2332 C.ar    1  UNL1        0.1527
     25 C         142.1719  140.4839  168.1554 C.ar    1  UNL1        0.1340
     26 N         140.9397  139.8819  168.7630 N.ar    1  UNL1       -0.2290
     27 C         139.9355  140.7604  169.4484 C.ar    1  UNL1        0.1683
     28 C         140.1634  142.2409  169.5262 C.ar    1  UNL1        0.1299
     29 N         141.3957  142.8429  168.9185 N.ar    1  UNL1       -0.2251
     30 C         138.7032  140.1584  170.0560 C.1     1  UNL1        0.1214
     31 N         137.4710  139.5564  170.6637 N.1     1  UNL1       -0.1892
@<TRIPOS>BOND
     1    13    14    1
     2    14     7    1
     3     7     8   ar
     4     8     9   ar
     5     9    10   ar
     6    10    11   ar
     7    11    15    1
     8    15    16    1
     9    16    17    1
    10    17    18    1
    11    18    19    1
    12    11    12   ar
    13    12     1    1
    14     1     2   ar
    15     2     3   ar
    16     3    22    1
    17    22    24    1
    18    24    25   ar
    19    25    26   ar
    20    26    27   ar
    21    27    30    1
    22    30    31    3
    23    27    28   ar
    24    28    29   ar
    25     3     4   ar
    26     4     5   ar
    27    12     7   ar
    28     5     1   ar
    29    29    24   ar
    30    19    20    1
    31    19    21    1
    32    22    23    1
    33     5     6    1
@<TRIPOS>MOLECULE
*****
 31 33 0 0 0
SMALL
GASTEIGER

@<TRIPOS>ATOM
      1 C         141.1020  144.4494  163.2016 C.ar    1  UNL1        0.0826
      2 C         141.4481  144.1401  161.7753 C.ar    1  UNL1        0.0548
      3 C         140.8266  145.1946  160.9083 C.ar    1  UNL1        0.1543
      4 N         140.0964  146.1558  161.7988 N.ar    1  UNL1       -0.1574
      5 N         140.2666  145.6952  163.2162 N.ar    1  UNL1       -0.2743
      6 H         139.8952  146.1336  164.0156 H       1  UNL1        0.1890
      7 C         142.9732  143.4100  164.6741 C.ar    1  UNL1        0.1430
      8 C         143.3893  142.6135  165.8750 C.ar    1  UNL1        0.0372
      9 C         142.3504  142.0598  166.8045 C.ar    1  UNL1        0.0062
     10 C         140.8953  142.3026  166.5330 C.ar    1  UNL1        0.0372
     11 C         140.4792  143.0991  165.3321 C.ar    1  UNL1        0.1428
     12 C         141.5182  143.6528  164.4026 C.ar    1  UNL1        0.0849
     13 C         144.7420  143.0497  162.8055 C.3     1  UNL1        0.2525
     14 O         144.0122  143.9638  163.7446 O.3     1  UNL1       -0.4713
     15 O         139.0240  143.3420  165.0606 O.3     1  UNL1       -0.4753
     16 C         138.1147  142.1879  164.7585 C.3     1  UNL1        0.2068
     17 C         137.5281  142.0344  163.3866 C.3     1  UNL1        0.0641
     18 C         137.8111  143.0614  162.3306 C.3     1  UNL1        0.0690
     19 N         137.5295  144.5102  162.5989 N.3     1  UNL1       -0.3210
     20 H         136.5243  144.6471  162.7052 H       1  UNL1        0.1189
     21 H         137.8686  145.0726  161.8185 H       1  UNL1        0.1189
     22 N         140.9191  145.2741  159.4132 N.pl3   1  UNL1       -0.2807
     23 H         141.5965  145.8512  158.9919 H       1  UNL1        0.1551
     24 C         139.9797  144.4744  158.5601 C.ar    1  UNL1        0.1527
     25 C         139.8695  144.7632  157.0921 C.ar    1  UNL1        0.1340
     26 N         138.9300  143.9635  156.2390 N.ar    1  UNL1       -0.2290
     27 C         138.1008  142.8751  156.8536 C.ar    1  UNL1        0.1683
     28 C         138.2111  142.5863  158.3214 C.ar    1  UNL1        0.1299
     29 N         139.1505  143.3861  159.1746 N.ar    1  UNL1       -0.2251
     30 C         137.1614  142.0754  156.0004 C.1     1  UNL1        0.1214
     31 N         136.2220  141.2757  155.1473 N.1     1  UNL1       -0.1892
@<TRIPOS>BOND
     1    13    14    1
     2    14     7    1
     3     7     8   ar
     4     8     9   ar
     5     9    10   ar
     6    10    11   ar
     7    11    15    1
     8    15    16    1
     9    16    17    1
    10    17    18    1
    11    18    19    1
    12    11    12   ar
    13    12     1    1
    14     1     2   ar
    15     2     3   ar
    16     3    22    1
    17    22    24    1
    18    24    25   ar
    19    25    26   ar
    20    26    27   ar
    21    27    30    1
    22    30    31    3
    23    27    28   ar
    24    28    29   ar
    25     3     4   ar
    26     4     5   ar
    27    12     7   ar
    28     5     1   ar
    29    29    24   ar
    30    19    20    1
    31    19    21    1
    32    22    23    1
    33     5     6    1
@<TRIPOS>MOLECULE
*****
 31 33 0 0 0
SMALL
GASTEIGER

@<TRIPOS>ATOM
      1 C         143.1248  142.7305  165.5243 C.ar    1  UNL1        0.0826
      2 C         142.0612  143.3009  164.6337 C.ar    1  UNL1        0.0548
      3 C         142.5734  144.5925  164.0685 C.ar    1  UNL1        0.1543
      4 N         143.9537  144.8203  164.6099 N.ar    1  UNL1       -0.1574
      5 N         144.2944  143.6696  165.5096 N.ar    1  UNL1       -0.2743
      6 H         145.1377  143.5513  166.0037 H       1  UNL1        0.1890
      7 C         142.6594  141.4675  167.7466 C.ar    1  UNL1        0.1430
      8 C         142.5693  140.1835  168.5167 C.ar    1  UNL1        0.0372
      9 C         142.8546  138.8783  167.8347 C.ar    1  UNL1        0.0062
     10 C         143.2300  138.8572  166.3826 C.ar    1  UNL1        0.0372
     11 C         143.3201  140.1412  165.6125 C.ar    1  UNL1        0.1428
     12 C         143.0348  141.4464  166.2945 C.ar    1  UNL1        0.0849
     13 C         141.1211  142.9387  169.2363 C.3     1  UNL1        0.2525
     14 O         142.3740  142.7727  168.4286 O.3     1  UNL1       -0.4713
     15 O         143.6955  140.1201  164.1604 O.3     1  UNL1       -0.4753
     16 C         145.1316  140.2727  163.7547 C.3     1  UNL1        0.2068
     17 C         145.6173  141.5750  163.1909 C.3     1  UNL1        0.0641
     18 C         144.9903  142.1350  161.9487 C.3     1  UNL1        0.0690
     19 N         144.8642  143.6197  161.7760 N.3     1  UNL1       -0.3210
     20 H         144.2194  143.9897  162.4744 H       1  UNL1        0.1189
     21 H         144.5082  143.8244  160.8423 H       1  UNL1        0.1189
     22 N         141.8350  145.4974  163.1273 N.pl3   1  UNL1       -0.2807
     23 H         141.7520  146.4571  163.3306 H       1  UNL1        0.1551
     24 C         141.2231  144.9401  161.8762 C.ar    1  UNL1        0.1527
     25 C         139.7528  144.6468  161.8268 C.ar    1  UNL1        0.1340
     26 N         139.1409  144.0895  160.5758 N.ar    1  UNL1       -0.2290
     27 C         139.9993  143.8255  159.3743 C.ar    1  UNL1        0.1683
     28 C         141.4695  144.1187  159.4238 C.ar    1  UNL1        0.1299
     29 N         142.0814  144.6760  160.6748 N.ar    1  UNL1       -0.2251
     30 C         139.3874  143.2682  158.1233 C.1     1  UNL1        0.1214
     31 N         138.7756  142.7109  156.8722 N.1     1  UNL1       -0.1892
@<TRIPOS>BOND
     1    13    14    1
     2    14     7    1
     3     7     8   ar
     4     8     9   ar
     5     9    10   ar
     6    10    11   ar
     7    11    15    1
     8    15    16    1
     9    16    17    1
    10    17    18    1
    11    18    19    1
    12    11    12   ar
    13    12     1    1
    14     1     2   ar
    15     2     3   ar
    16     3    22    1
    17    22    24    1
    18    24    25   ar
    19    25    26   ar
    20    26    27   ar
    21    27    30    1
    22    30    31    3
    23    27    28   ar
    24    28    29   ar
    25     3     4   ar
    26     4     5   ar
    27    12     7   ar
    28     5     1   ar
    29    29    24   ar
    30    19    20    1
    31    19    21    1
    32    22    23    1
    33     5     6    1
@<TRIPOS>MOLECULE
*****
 31 33 0 0 0
SMALL
GASTEIGER

@<TRIPOS>ATOM
      1 C         141.1217  141.6516  163.6173 C.ar    1  UNL1        0.0826
      2 C         141.5755  141.7575  162.1915 C.ar    1  UNL1        0.0548
      3 C         142.3386  143.0401  162.0420 C.ar    1  UNL1        0.1543
      4 N         142.3565  143.7271  163.3754 N.ar    1  UNL1       -0.1574
      5 N         141.6044  142.8689  164.3489 N.ar    1  UNL1       -0.2743
      6 H         141.4539  143.0694  165.3010 H       1  UNL1        0.1890
      7 C         140.8038  139.1119  164.0634 C.ar    1  UNL1        0.1430
      8 C         140.0071  137.9865  164.6539 C.ar    1  UNL1        0.0372
      9 C         138.7318  138.2753  165.3888 C.ar    1  UNL1        0.0062
     10 C         138.2531  139.6894  165.5333 C.ar    1  UNL1        0.0372
     11 C         139.0497  140.8149  164.9428 C.ar    1  UNL1        0.1428
     12 C         140.3251  140.5261  164.2078 C.ar    1  UNL1        0.0849
     13 C         142.0604  137.9518  162.1077 C.3     1  UNL1        0.2525
     14 O         142.0791  138.8232  163.3284 O.3     1  UNL1       -0.4713
     15 O         138.5710  142.2291  165.0872 O.3     1  UNL1       -0.4753
     16 C         137.5507  142.7766  164.1337 C.3     1  UNL1        0.2068
     17 C         137.9913  143.5494  162.9261 C.3     1  UNL1        0.0641
     18 C         138.7370  144.8402  163.0926 C.3     1  UNL1        0.0690
     19 N         139.5562  145.0793  164.3262 N.3     1  UNL1       -0.3210
     20 H         138.9409  145.1316  165.1381 H       1  UNL1        0.1189
     21 H         140.0675  145.9567  164.2301 H       1  UNL1        0.1189
     22 N         142.9726  143.5469  160.7805 N.pl3   1  UNL1       -0.2807
     23 H         143.9269  143.3781  160.6070 H       1  UNL1        0.1551
     24 C         142.1527  144.3110  159.7835 C.ar    1  UNL1        0.1527
     25 C         140.7989  144.8310  160.1671 C.ar    1  UNL1        0.1340
     26 N         139.9790  145.5951  159.1701 N.ar    1  UNL1       -0.2290
     27 C         140.5128  145.8391  157.7896 C.ar    1  UNL1        0.1683
     28 C         141.8665  145.3191  157.4062 C.ar    1  UNL1        0.1299
     29 N         142.6864  144.5550  158.4032 N.ar    1  UNL1       -0.2251
     30 C         139.6929  146.6031  156.7927 C.1     1  UNL1        0.1214
     31 N         138.8731  147.3672  155.7957 N.1     1  UNL1       -0.1892
@<TRIPOS>BOND
     1    13    14    1
     2    14     7    1
     3     7     8   ar
     4     8     9   ar
     5     9    10   ar
     6    10    11   ar
     7    11    15    1
     8    15    16    1
     9    16    17    1
    10    17    18    1
    11    18    19    1
    12    11    12   ar
    13    12     1    1
    14     1     2   ar
    15     2     3   ar
    16     3    22    1
    17    22    24    1
    18    24    25   ar
    19    25    26   ar
    20    26    27   ar
    21    27    30    1
    22    30    31    3
    23    27    28   ar
    24    28    29   ar
    25     3     4   ar
    26     4     5   ar
    27    12     7   ar
    28     5     1   ar
    29    29    24   ar
    30    19    20    1
    31    19    21    1
    32    22    23    1
    33     5     6    1
@<TRIPOS>MOLECULE
*****
 31 33 0 0 0
SMALL
GASTEIGER

@<TRIPOS>ATOM
      1 C         140.6021  142.2113  164.7816 C.ar    1  UNL1        0.0826
      2 C         141.2454  141.9852  163.4455 C.ar    1  UNL1        0.0548
      3 C         141.8630  143.2788  163.0037 C.ar    1  UNL1        0.1543
      4 N         141.6014  144.3043  164.0667 N.ar    1  UNL1       -0.1574
      5 N         140.8221  143.6445  165.1655 N.ar    1  UNL1       -0.2743
      6 H         140.5099  144.0764  165.9933 H       1  UNL1        0.1890
      7 C         140.2215  140.9734  167.0339 C.ar    1  UNL1        0.1430
      8 C         139.4870  139.9465  167.8438 C.ar    1  UNL1        0.0372
      9 C         138.3988  139.1305  167.2115 C.ar    1  UNL1        0.0062
     10 C         138.0449  139.3414  165.7692 C.ar    1  UNL1        0.0372
     11 C         138.7794  140.3683  164.9593 C.ar    1  UNL1        0.1428
     12 C         139.8676  141.1843  165.5916 C.ar    1  UNL1        0.0849
     13 C         141.1652  142.2638  169.0819 C.3     1  UNL1        0.2525
     14 O         141.3097  141.7894  167.6663 O.3     1  UNL1       -0.4713
     15 O         138.4255  140.5793  163.5169 O.3     1  UNL1       -0.4753
     16 C         137.3947  141.6014  163.1393 C.3     1  UNL1        0.2068
     17 C         137.8077  142.8564  162.4291 C.3     1  UNL1        0.0641
     18 C         137.7541  144.1745  163.1430 C.3     1  UNL1        0.0690
     19 N         137.7654  144.2163  164.6424 N.3     1  UNL1       -0.3210
     20 H         136.9094  143.7931  165.0008 H       1  UNL1        0.1189
     21 H         137.8223  145.1856  164.9551 H       1  UNL1        0.1189
     22 N         142.6109  143.5068  161.7236 N.pl3   1  UNL1       -0.2807
     23 H         143.5406  143.1955  161.6345 H       1  UNL1        0.1551
     24 C         141.9423  144.2092  160.5792 C.ar    1  UNL1        0.1527
     25 C         140.6187  144.8847  160.7841 C.ar    1  UNL1        0.1340
     26 N         139.9501  145.5871  159.6397 N.ar    1  UNL1       -0.2290
     27 C         140.6049  145.6139  158.2904 C.ar    1  UNL1        0.1683
     28 C         141.9284  144.9383  158.0856 C.ar    1  UNL1        0.1299
     29 N         142.5970  144.2360  159.2300 N.ar    1  UNL1       -0.2251
     30 C         139.9363  146.3162  157.1460 C.1     1  UNL1        0.1214
     31 N         139.2677  147.0186  156.0017 N.1     1  UNL1       -0.1892
@<TRIPOS>BOND
     1    13    14    1
     2    14     7    1
     3     7     8   ar
     4     8     9   ar
     5     9    10   ar
     6    10    11   ar
     7    11    15    1
     8    15    16    1
     9    16    17    1
    10    17    18    1
    11    18    19    1
    12    11    12   ar
    13    12     1    1
    14     1     2   ar
    15     2     3   ar
    16     3    22    1
    17    22    24    1
    18    24    25   ar
    19    25    26   ar
    20    26    27   ar
    21    27    30    1
    22    30    31    3
    23    27    28   ar
    24    28    29   ar
    25     3     4   ar
    26     4     5   ar
    27    12     7   ar
    28     5     1   ar
    29    29    24   ar
    30    19    20    1
    31    19    21    1
    32    22    23    1
    33     5     6    1
@<TRIPOS>MOLECULE
*****
 31 33 0 0 0
SMALL
GASTEIGER

@<TRIPOS>ATOM
      1 C         140.8917  141.9379  165.5206 C.ar    1  UNL1        0.0826
      2 C         140.5377  143.1280  164.6791 C.ar    1  UNL1        0.0548
      3 C         141.8032  143.8740  164.3755 C.ar    1  UNL1        0.1543
      4 N         142.9393  143.1448  165.0295 N.ar    1  UNL1       -0.1574
      5 N         142.3759  141.9482  165.7372 N.ar    1  UNL1       -0.2743
      6 H         142.8900  141.2859  166.2532 H       1  UNL1        0.1890
      7 C         139.0216  140.1811  165.1124 C.ar    1  UNL1        0.1430
      8 C         138.0602  139.1599  165.6441 C.ar    1  UNL1        0.0372
      9 C         138.0073  138.8742  167.1157 C.ar    1  UNL1        0.0062
     10 C         138.9158  139.6098  168.0556 C.ar    1  UNL1        0.0372
     11 C         139.8772  140.6310  167.5239 C.ar    1  UNL1        0.1428
     12 C         139.9302  140.9166  166.0523 C.ar    1  UNL1        0.0849
     13 C         137.8100  140.7523  162.8863 C.3     1  UNL1        0.2525
     14 O         139.0745  140.4667  163.6408 O.3     1  UNL1       -0.4713
     15 O         140.7858  141.3666  168.4638 O.3     1  UNL1       -0.4753
     16 C         140.3199  142.6320  169.1208 C.3     1  UNL1        0.2068
     17 C         141.2939  143.4885  169.8742 C.3     1  UNL1        0.0641
     18 C         142.4440  142.8558  170.6000 C.3     1  UNL1        0.0690
     19 N         142.2180  142.1834  171.9218 N.3     1  UNL1       -0.3210
     20 H         141.9412  142.8792  172.6143 H       1  UNL1        0.1189
     21 H         143.0794  141.7278  172.2231 H       1  UNL1        0.1189
     22 N         141.9133  145.1288  163.5610 N.pl3   1  UNL1       -0.2807
     23 H         142.2834  145.9468  163.9648 H       1  UNL1        0.1551
     24 C         141.4595  145.1372  162.1314 C.ar    1  UNL1        0.1527
     25 C         140.1763  145.8174  161.7558 C.ar    1  UNL1        0.1340
     26 N         139.7226  145.8258  160.3261 N.ar    1  UNL1       -0.2290
     27 C         140.5518  145.1540  159.2720 C.ar    1  UNL1        0.1683
     28 C         141.8349  144.4739  159.6476 C.ar    1  UNL1        0.1299
     29 N         142.2887  144.4655  161.0773 N.ar    1  UNL1       -0.2251
     30 C         140.0981  145.1624  157.8423 C.1     1  UNL1        0.1214
     31 N         139.6443  145.1708  156.4127 N.1     1  UNL1       -0.1892
@<TRIPOS>BOND
     1    13    14    1
     2    14     7    1
     3     7     8   ar
     4     8     9   ar
     5     9    10   ar
     6    10    11   ar
     7    11    15    1
     8    15    16    1
     9    16    17    1
    10    17    18    1
    11    18    19    1
    12    11    12   ar
    13    12     1    1
    14     1     2   ar
    15     2     3   ar
    16     3    22    1
    17    22    24    1
    18    24    25   ar
    19    25    26   ar
    20    26    27   ar
    21    27    30    1
    22    30    31    3
    23    27    28   ar
    24    28    29   ar
    25     3     4   ar
    26     4     5   ar
    27    12     7   ar
    28     5     1   ar
    29    29    24   ar
    30    19    20    1
    31    19    21    1
    32    22    23    1
    33     5     6    1
@<TRIPOS>MOLECULE
*****
 31 33 0 0 0
SMALL
GASTEIGER

@<TRIPOS>ATOM
      1 C         143.1597  142.6493  165.3722 C.ar    1  UNL1        0.0826
      2 C         142.0744  143.2345  164.5180 C.ar    1  UNL1        0.0548
      3 C         142.5785  144.5279  163.9497 C.ar    1  UNL1        0.1543
      4 N         143.9753  144.7422  164.4528 N.ar    1  UNL1       -0.1574
      5 N         144.3345  143.5811  165.3319 N.ar    1  UNL1       -0.2743
      6 H         145.1910  143.4531  165.8002 H       1  UNL1        0.1890
      7 C         143.4856  140.0736  165.4724 C.ar    1  UNL1        0.1430
      8 C         143.4095  138.7833  166.2333 C.ar    1  UNL1        0.0372
      9 C         142.9314  138.7781  167.6551 C.ar    1  UNL1        0.0062
     10 C         142.5293  140.0632  168.3159 C.ar    1  UNL1        0.0372
     11 C         142.6054  141.3536  167.5549 C.ar    1  UNL1        0.1428
     12 C         143.0836  141.3588  166.1332 C.ar    1  UNL1        0.0849
     13 C         143.1043  139.4962  162.9682 C.3     1  UNL1        0.2525
     14 O         143.9638  140.0789  164.0506 O.3     1  UNL1       -0.4713
     15 O         142.2034  142.6389  168.2157 O.3     1  UNL1       -0.4753
     16 C         140.7569  142.9150  168.5011 C.3     1  UNL1        0.2068
     17 C         140.2938  143.1011  169.9156 C.3     1  UNL1        0.0641
     18 C         140.7055  142.1219  170.9746 C.3     1  UNL1        0.0690
     19 N         142.0849  142.1866  171.5605 N.3     1  UNL1       -0.3210
     20 H         142.7709  141.9584  170.8410 H       1  UNL1        0.1189
     21 H         142.1605  141.5177  172.3268 H       1  UNL1        0.1189
     22 N         141.8190  145.4460  163.0385 N.pl3   1  UNL1       -0.2807
     23 H         141.7365  146.4017  163.2599 H       1  UNL1        0.1551
     24 C         141.1854  144.9079  161.7899 C.ar    1  UNL1        0.1527
     25 C         139.7433  144.4950  161.7987 C.ar    1  UNL1        0.1340
     26 N         139.1097  143.9569  160.5501 N.ar    1  UNL1       -0.2290
     27 C         139.9180  143.8318  159.2927 C.ar    1  UNL1        0.1683
     28 C         141.3600  144.2447  159.2840 C.ar    1  UNL1        0.1299
     29 N         141.9936  144.7828  160.5326 N.ar    1  UNL1       -0.2251
     30 C         139.2844  143.2937  158.0441 C.1     1  UNL1        0.1214
     31 N         138.6508  142.7557  156.7955 N.1     1  UNL1       -0.1892
@<TRIPOS>BOND
     1    13    14    1
     2    14     7    1
     3     7     8   ar
     4     8     9   ar
     5     9    10   ar
     6    10    11   ar
     7    11    15    1
     8    15    16    1
     9    16    17    1
    10    17    18    1
    11    18    19    1
    12    11    12   ar
    13    12     1    1
    14     1     2   ar
    15     2     3   ar
    16     3    22    1
    17    22    24    1
    18    24    25   ar
    19    25    26   ar
    20    26    27   ar
    21    27    30    1
    22    30    31    3
    23    27    28   ar
    24    28    29   ar
    25     3     4   ar
    26     4     5   ar
    27    12     7   ar
    28     5     1   ar
    29    29    24   ar
    30    19    20    1
    31    19    21    1
    32    22    23    1
    33     5     6    1
@<TRIPOS>MOLECULE
*****
 31 33 0 0 0
SMALL
GASTEIGER

@<TRIPOS>ATOM
      1 C         139.1754  139.6994  167.3184 C.ar    1  UNL1        0.0826
      2 C         139.8381  139.3388  166.0219 C.ar    1  UNL1        0.0548
      3 C         139.0649  138.2116  165.4041 C.ar    1  UNL1        0.1543
      4 N         137.9244  137.8756  166.3187 N.ar    1  UNL1       -0.1574
      5 N         137.9927  138.7952  167.5018 N.ar    1  UNL1       -0.2743
      6 H         137.3705  138.8037  168.2647 H       1  UNL1        0.1890
      7 C         140.3924  141.9533  167.7530 C.ar    1  UNL1        0.1430
      8 C         140.8347  143.0293  168.6999 C.ar    1  UNL1        0.0372
      9 C         140.5024  142.9274  170.1590 C.ar    1  UNL1        0.0062
     10 C         139.7277  141.7496  170.6713 C.ar    1  UNL1        0.0372
     11 C         139.2854  140.6736  169.7244 C.ar    1  UNL1        0.1428
     12 C         139.6178  140.7755  168.2653 C.ar    1  UNL1        0.0849
     13 C         140.1136  143.1415  165.4594 C.3     1  UNL1        0.2525
     14 O         140.7248  142.0552  166.2938 O.3     1  UNL1       -0.4713
     15 O         138.5106  139.4957  170.2367 O.3     1  UNL1       -0.4753
     16 C         137.1435  139.6940  170.8212 C.3     1  UNL1        0.2068
     17 C         136.2233  138.5217  170.9913 C.3     1  UNL1        0.0641
     18 C         136.3156  137.6681  172.2213 C.3     1  UNL1        0.0690
     19 N         137.1618  136.4295  172.2128 N.3     1  UNL1       -0.3210
     20 H         136.7644  135.7507  171.5633 H       1  UNL1        0.1189
     21 H         137.1870  136.0285  173.1503 H       1  UNL1        0.1189
     22 N         139.3774  137.5385  164.1005 N.pl3   1  UNL1       -0.2807
     23 H         139.7882  136.6438  164.0945 H       1  UNL1        0.1551
     24 C         139.0640  138.2286  162.8060 C.ar    1  UNL1        0.1527
     25 C         138.0792  139.3598  162.7784 C.ar    1  UNL1        0.1340
     26 N         137.7658  140.0499  161.4840 N.ar    1  UNL1       -0.2290
     27 C         138.4371  139.6088  160.2172 C.ar    1  UNL1        0.1683
     28 C         139.4219  138.4777  160.2448 C.ar    1  UNL1        0.1299
     29 N         139.7353  137.7876  161.5393 N.ar    1  UNL1       -0.2251
     30 C         138.1238  140.2989  158.9228 C.1     1  UNL1        0.1214
     31 N         137.8104  140.9889  157.6283 N.1     1  UNL1       -0.1892
@<TRIPOS>BOND
     1    13    14    1
     2    14     7    1
     3     7     8   ar
     4     8     9   ar
     5     9    10   ar
     6    10    11   ar
     7    11    15    1
     8    15    16    1
     9    16    17    1
    10    17    18    1
    11    18    19    1
    12    11    12   ar
    13    12     1    1
    14     1     2   ar
    15     2     3   ar
    16     3    22    1
    17    22    24    1
    18    24    25   ar
    19    25    26   ar
    20    26    27   ar
    21    27    30    1
    22    30    31    3
    23    27    28   ar
    24    28    29   ar
    25     3     4   ar
    26     4     5   ar
    27    12     7   ar
    28     5     1   ar
    29    29    24   ar
    30    19    20    1
    31    19    21    1
    32    22    23    1
    33     5     6    1
