@<TRIPOS>MOLECULE
*****
 41 45 0 0 0
SMALL
GASTEIGER

@<TRIPOS>ATOM
      1 C         139.7854  143.6385  161.0168 C.ar    1  UNL1        0.0655
      2 C         138.9704  142.5972  161.7248 C.ar    1  UNL1        0.0337
      3 C         138.2266  141.5616  160.9346 C.ar    1  UNL1        0.0862
      4 C         138.2979  141.5673  159.4363 C.ar    1  UNL1        0.1534
      5 C         139.1129  142.6086  158.7283 C.ar    1  UNL1        0.0539
      6 C         139.8567  143.6442  159.5185 C.ar    1  UNL1        0.0647
      7 C         141.7621  144.2917  162.5711 C.2     1  UNL1        0.2497
      8 O         142.2174  143.2994  162.6319 O.2     1  UNL1       -0.2698
      9 N         140.5292  144.6740  161.8070 N.am    1  UNL1       -0.2794
     10 H         140.2082  145.6046  161.8241 H       1  UNL1        0.1552
     11 C         143.7451  144.9474  164.1164 C.2     1  UNL1        0.0048
     12 C         142.5059  145.3273  163.3613 C.2     1  UNL1        0.0580
     13 N         137.4115  140.5203  161.6427 N.pl3   1  UNL1       -0.2801
     14 H         136.4518  140.4274  161.4440 H       1  UNL1        0.1552
     15 C         138.0588  139.6206  162.6535 C.ar    1  UNL1        0.2207
     16 N         138.2623  138.1673  162.3426 N.ar    1  UNL1       -0.2120
     17 C         138.9096  137.2677  163.3533 C.ar    1  UNL1        0.1034
     18 C         139.3533  137.8212  164.6749 C.ar    1  UNL1        0.0400
     19 C         139.1498  139.2745  164.9858 C.ar    1  UNL1        0.0872
     20 N         138.5025  140.1741  163.9751 N.ar    1  UNL1       -0.2135
     21 C         139.5935  139.8280  166.3075 C.ar    1  UNL1        0.0364
     22 C         138.8958  139.6386  167.6218 C.ar    1  UNL1        0.0774
     23 N         139.6840  140.3617  168.6734 N.ar    1  UNL1       -0.3263
     24 C         140.8688  140.9980  168.0090 C.ar    1  UNL1        0.0559
     25 C         141.9913  141.8352  168.5466 C.ar    1  UNL1       -0.0063
     26 C         143.0580  142.3425  167.6220 C.ar    1  UNL1       -0.0028
     27 C         143.0020  142.0127  166.1598 C.ar    1  UNL1       -0.0002
     28 C         141.8795  141.1755  165.6222 C.ar    1  UNL1        0.0015
     29 C         140.8129  140.6682  166.5468 C.ar    1  UNL1        0.0184
     30 C         141.7948  142.0054  170.0308 C.3     1  UNL1        0.0298
     31 C         140.6629  141.4304  170.8297 C.3     1  UNL1        0.0292
     32 C         139.6075  140.6085  170.1509 C.3     1  UNL1        0.1064
     33 O         137.5541  140.5318  158.6461 O.3     1  UNL1       -0.4701
     34 C         137.1373  140.8219  157.2347 C.3     1  UNL1        0.2525
     35 N         140.6718  144.6855  158.8103 N.pl3   1  UNL1       -0.3033
     36 C         140.3014  145.5907  158.3211 C.3     1  UNL1        0.1123
     37 C         142.1620  144.5393  158.7218 C.3     1  UNL1        0.1082
     38 C         142.7653  143.2160  158.3543 C.3     1  UNL1        0.0938
     39 N         143.2296  142.2790  159.4297 N.3     1  UNL1       -0.2688
     40 C         142.3902  141.0941  159.8057 C.3     1  UNL1        0.0897
     41 C         144.5332  142.5269  160.1290 C.3     1  UNL1        0.0897
@<TRIPOS>BOND
     1    11    12    2
     2    12     7    1
     3     7     8    2
     4     7     9   am
     5     9     1    1
     6     1     2   ar
     7     2     3   ar
     8     3    13    1
     9    13    15    1
    10    15    16   ar
    11    16    17   ar
    12    17    18   ar
    13    18    19   ar
    14    19    21    1
    15    21    22   ar
    16    22    23   ar
    17    23    24   ar
    18    24    25   ar
    19    25    26   ar
    20    26    27   ar
    21    27    28   ar
    22    28    29   ar
    23    25    30    1
    24    30    31    1
    25    31    32    1
    26    19    20   ar
    27     3     4   ar
    28     4    33    1
    29    33    34    1
    30     4     5   ar
    31     5     6   ar
    32     6    35    1
    33    35    36    1
    34    35    37    1
    35    37    38    1
    36    38    39    1
    37    39    40    1
    38    39    41    1
    39     6     1   ar
    40    20    15   ar
    41    29    21   ar
    42    32    23    1
    43    29    24   ar
    44     9    10    1
    45    13    14    1
@<TRIPOS>MOLECULE
*****
 41 45 0 0 0
SMALL
GASTEIGER

@<TRIPOS>ATOM
      1 C         140.9096  143.4301  160.6386 C.ar    1  UNL1        0.0655
      2 C         139.8731  142.6493  161.3909 C.ar    1  UNL1        0.0337
      3 C         138.8776  141.8111  160.6449 C.ar    1  UNL1        0.0862
      4 C         138.9185  141.7538  159.1466 C.ar    1  UNL1        0.1534
      5 C         139.9550  142.5346  158.3942 C.ar    1  UNL1        0.0539
      6 C         140.9505  143.3728  159.1403 C.ar    1  UNL1        0.0647
      7 C         143.0621  143.6158  162.0815 C.2     1  UNL1        0.2497
      8 O         143.2894  142.5469  162.1200 O.2     1  UNL1       -0.2698
      9 N         141.9051  144.2682  161.3846 N.am    1  UNL1       -0.2794
     10 H         141.7990  145.2465  161.4168 H       1  UNL1        0.1552
     11 C         143.6458  145.1718  164.0786 C.2     1  UNL1        0.0048
     12 C         144.0576  144.4539  162.8275 C.2     1  UNL1        0.0580
     13 N         137.8411  141.0303  161.3972 N.pl3   1  UNL1       -0.2801
     14 H         136.8848  141.1868  161.2235 H       1  UNL1        0.1552
     15 C         138.2617  140.0109  162.4141 C.ar    1  UNL1        0.2207
     16 N         138.2137  138.5502  162.0761 N.ar    1  UNL1       -0.2120
     17 C         138.6343  137.5310  163.0930 C.ar    1  UNL1        0.1034
     18 C         139.1029  137.9722  164.4478 C.ar    1  UNL1        0.0400
     19 C         139.1510  139.4329  164.7858 C.ar    1  UNL1        0.0872
     20 N         138.7304  140.4522  163.7689 N.ar    1  UNL1       -0.2135
     21 C         139.6196  139.8741  166.1407 C.ar    1  UNL1        0.0364
     22 C         138.9510  139.5676  167.4480 C.ar    1  UNL1        0.0774
     23 N         139.7573  140.2034  168.5413 N.ar    1  UNL1       -0.3263
     24 C         140.9243  140.9030  167.9098 C.ar    1  UNL1        0.0559
     25 C         142.0534  141.6990  168.4940 C.ar    1  UNL1       -0.0063
     26 C         143.0974  142.2915  167.5947 C.ar    1  UNL1       -0.0028
     27 C         143.0123  142.0880  166.1110 C.ar    1  UNL1       -0.0002
     28 C         141.8832  141.2920  165.5267 C.ar    1  UNL1        0.0015
     29 C         140.8392  140.6995  166.4261 C.ar    1  UNL1        0.0184
     30 C         141.8875  141.7398  169.9911 C.3     1  UNL1        0.0298
     31 C         140.7759  141.0902  170.7608 C.3     1  UNL1        0.0292
     32 C         139.7108  140.3220  170.0359 C.3     1  UNL1        0.1064
     33 O         137.9231  140.9157  158.4005 O.3     1  UNL1       -0.4701
     34 C         137.2277  141.4733  157.1941 C.3     1  UNL1        0.2525
     35 N         141.9870  144.1536  158.3879 N.pl3   1  UNL1       -0.3033
     36 C         142.9532  143.7888  158.0282 C.3     1  UNL1        0.1123
     37 C         141.7446  145.5961  158.0555 C.3     1  UNL1        0.1082
     38 C         141.5744  146.0181  156.6262 C.3     1  UNL1        0.0938
     39 N         140.3655  145.5798  155.8538 N.3     1  UNL1       -0.2688
     40 C         140.3976  144.2989  155.0739 C.3     1  UNL1        0.0897
     41 C         139.1246  146.4224  155.8613 C.3     1  UNL1        0.0897
@<TRIPOS>BOND
     1    11    12    2
     2    12     7    1
     3     7     8    2
     4     7     9   am
     5     9     1    1
     6     1     2   ar
     7     2     3   ar
     8     3    13    1
     9    13    15    1
    10    15    16   ar
    11    16    17   ar
    12    17    18   ar
    13    18    19   ar
    14    19    21    1
    15    21    22   ar
    16    22    23   ar
    17    23    24   ar
    18    24    25   ar
    19    25    26   ar
    20    26    27   ar
    21    27    28   ar
    22    28    29   ar
    23    25    30    1
    24    30    31    1
    25    31    32    1
    26    19    20   ar
    27     3     4   ar
    28     4    33    1
    29    33    34    1
    30     4     5   ar
    31     5     6   ar
    32     6    35    1
    33    35    36    1
    34    35    37    1
    35    37    38    1
    36    38    39    1
    37    39    40    1
    38    39    41    1
    39     6     1   ar
    40    20    15   ar
    41    29    21   ar
    42    32    23    1
    43    29    24   ar
    44     9    10    1
    45    13    14    1
@<TRIPOS>MOLECULE
*****
 41 45 0 0 0
SMALL
GASTEIGER

@<TRIPOS>ATOM
      1 C         143.4967  142.9155  160.5539 C.ar    1  UNL1        0.0655
      2 C         142.4199  143.6880  161.2566 C.ar    1  UNL1        0.0337
      3 C         141.4696  144.5383  160.4667 C.ar    1  UNL1        0.0862
      4 C         141.5961  144.6161  158.9741 C.ar    1  UNL1        0.1534
      5 C         142.6729  143.8436  158.2714 C.ar    1  UNL1        0.0539
      6 C         143.6232  142.9934  159.0613 C.ar    1  UNL1        0.0647
      7 C         144.9027  142.5126  162.7012 C.2     1  UNL1        0.2497
      8 O         144.6170  143.4307  163.2218 O.2     1  UNL1       -0.2698
      9 N         144.4470  142.0653  161.3438 N.am    1  UNL1       -0.2794
     10 H         144.7716  141.2137  160.9715 H       1  UNL1        0.1552
     11 C         145.3884  140.3598  164.0722 C.2     1  UNL1        0.0048
     12 C         145.8530  141.6623  163.4911 C.2     1  UNL1        0.0580
     13 N         140.3928  145.3108  161.1693 N.pl3   1  UNL1       -0.2801
     14 H         140.1867  146.2324  160.8911 H       1  UNL1        0.1552
     15 C         139.6300  144.6790  162.2960 C.ar    1  UNL1        0.2207
     16 N         138.1434  144.8569  162.3878 N.ar    1  UNL1       -0.2120
     17 C         137.3808  144.2252  163.5144 C.ar    1  UNL1        0.1034
     18 C         138.1046  143.4157  164.5491 C.ar    1  UNL1        0.0400
     19 C         139.5912  143.2378  164.4573 C.ar    1  UNL1        0.0872
     20 N         140.3539  143.8695  163.3307 N.ar    1  UNL1       -0.2135
     21 C         140.3150  142.4282  165.4920 C.ar    1  UNL1        0.0364
     22 C         140.5030  142.8033  166.9322 C.ar    1  UNL1        0.0774
     23 N         141.2821  141.7083  167.5985 N.ar    1  UNL1       -0.3263
     24 C         141.5757  140.6565  166.5700 C.ar    1  UNL1        0.0559
     25 C         142.3100  139.3510  166.6509 C.ar    1  UNL1       -0.0063
     26 C         142.4467  138.4905  165.4299 C.ar    1  UNL1       -0.0028
     27 C         141.8490  138.9354  164.1281 C.ar    1  UNL1       -0.0002
     28 C         141.1146  140.2409  164.0473 C.ar    1  UNL1        0.0015
     29 C         140.9780  141.1014  165.2682 C.ar    1  UNL1        0.0184
     30 C         142.7984  139.1619  168.0637 C.3     1  UNL1        0.0298
     31 C         142.5821  140.1233  169.1946 C.3     1  UNL1        0.0292
     32 C         141.8240  141.3966  168.9620 C.3     1  UNL1        0.1064
     33 O         140.6458  145.4664  158.1841 O.3     1  UNL1       -0.4701
     34 C         141.1056  146.1278  156.9188 C.3     1  UNL1        0.2525
     35 N         144.7000  142.2209  158.3585 N.pl3   1  UNL1       -0.3033
     36 C         145.6253  142.6196  157.9334 C.3     1  UNL1        0.1123
     37 C         144.5649  140.7376  158.1809 C.3     1  UNL1        0.1082
     38 C         143.2215  140.1362  157.8915 C.3     1  UNL1        0.0938
     39 N         143.1213  138.7140  157.4254 N.3     1  UNL1       -0.2688
     40 C         143.4673  138.3630  156.0086 C.3     1  UNL1        0.0897
     41 C         142.6752  137.6428  158.3758 C.3     1  UNL1        0.0897
@<TRIPOS>BOND
     1    11    12    2
     2    12     7    1
     3     7     8    2
     4     7     9   am
     5     9     1    1
     6     1     2   ar
     7     2     3   ar
     8     3    13    1
     9    13    15    1
    10    15    16   ar
    11    16    17   ar
    12    17    18   ar
    13    18    19   ar
    14    19    21    1
    15    21    22   ar
    16    22    23   ar
    17    23    24   ar
    18    24    25   ar
    19    25    26   ar
    20    26    27   ar
    21    27    28   ar
    22    28    29   ar
    23    25    30    1
    24    30    31    1
    25    31    32    1
    26    19    20   ar
    27     3     4   ar
    28     4    33    1
    29    33    34    1
    30     4     5   ar
    31     5     6   ar
    32     6    35    1
    33    35    36    1
    34    35    37    1
    35    37    38    1
    36    38    39    1
    37    39    40    1
    38    39    41    1
    39     6     1   ar
    40    20    15   ar
    41    29    21   ar
    42    32    23    1
    43    29    24   ar
    44     9    10    1
    45    13    14    1
@<TRIPOS>MOLECULE
*****
 41 45 0 0 0
SMALL
GASTEIGER

@<TRIPOS>ATOM
      1 C         142.9279  139.7764  158.6602 C.ar    1  UNL1        0.0655
      2 C         143.8521  140.2940  159.7222 C.ar    1  UNL1        0.0337
      3 C         143.8325  139.6878  161.0941 C.ar    1  UNL1        0.0862
      4 C         142.8886  138.5641  161.4041 C.ar    1  UNL1        0.1534
      5 C         141.9643  138.0464  160.3422 C.ar    1  UNL1        0.0539
      6 C         141.9840  138.6526  158.9702 C.ar    1  UNL1        0.0647
      7 C         144.1662  140.2444  156.4247 C.2     1  UNL1        0.2497
      8 O         145.0973  139.7299  156.6779 O.2     1  UNL1       -0.2698
      9 N         142.9475  140.3826  157.2883 N.am    1  UNL1       -0.2794
     10 H         142.1605  140.8711  156.9547 H       1  UNL1        0.1552
     11 C         144.9637  140.1914  153.9527 C.2     1  UNL1        0.0048
     12 C         144.1858  140.8506  155.0528 C.2     1  UNL1        0.0580
     13 N         144.7568  140.2055  162.1561 N.pl3   1  UNL1       -0.2801
     14 H         145.6545  139.8150  162.2604 H       1  UNL1        0.1552
     15 C         144.3132  141.3181  163.0592 C.ar    1  UNL1        0.2207
     16 N         144.5120  142.7457  162.6438 N.ar    1  UNL1       -0.2120
     17 C         144.0684  143.8582  163.5469 C.ar    1  UNL1        0.1034
     18 C         143.4262  143.5431  164.8653 C.ar    1  UNL1        0.0400
     19 C         143.2275  142.1156  165.2807 C.ar    1  UNL1        0.0872
     20 N         143.6710  141.0031  164.3776 N.ar    1  UNL1       -0.2135
     21 C         142.5853  141.8006  166.5992 C.ar    1  UNL1        0.0364
     22 C         143.0983  142.2063  167.9491 C.ar    1  UNL1        0.0774
     23 N         142.1474  141.6810  168.9834 N.ar    1  UNL1       -0.3263
     24 C         141.0466  140.9506  168.2726 C.ar    1  UNL1        0.0559
     25 C         139.8329  140.2278  168.7769 C.ar    1  UNL1       -0.0063
     26 C         138.8898  139.5789  167.8077 C.ar    1  UNL1       -0.0028
     27 C         139.1604  139.6528  166.3342 C.ar    1  UNL1       -0.0002
     28 C         140.3742  140.3756  165.8299 C.ar    1  UNL1        0.0015
     29 C         141.3173  141.0245  166.7991 C.ar    1  UNL1        0.0184
     30 C         139.8142  140.3127  170.2812 C.3     1  UNL1        0.0298
     31 C         140.8418  141.0061  171.1258 C.3     1  UNL1        0.0292
     32 C         142.0083  141.6903  170.4769 C.3     1  UNL1        0.1064
     33 O         142.8690  137.9579  162.7760 O.3     1  UNL1       -0.4701
     34 C         141.5603  137.6574  163.4445 C.3     1  UNL1        0.2525
     35 N         141.0596  138.1349  157.9083 N.pl3   1  UNL1       -0.3033
     36 C         139.9776  138.2816  157.8490 C.3     1  UNL1        0.1123
     37 C         141.6037  137.3201  156.7725 C.3     1  UNL1        0.1082
     38 C         142.9438  136.6582  156.8987 C.3     1  UNL1        0.0938
     39 N         143.1292  135.2450  156.4315 N.3     1  UNL1       -0.2688
     40 C         143.4099  134.1571  157.4255 C.3     1  UNL1        0.0897
     41 C         143.0340  134.9194  154.9704 C.3     1  UNL1        0.0897
@<TRIPOS>BOND
     1    11    12    2
     2    12     7    1
     3     7     8    2
     4     7     9   am
     5     9     1    1
     6     1     2   ar
     7     2     3   ar
     8     3    13    1
     9    13    15    1
    10    15    16   ar
    11    16    17   ar
    12    17    18   ar
    13    18    19   ar
    14    19    21    1
    15    21    22   ar
    16    22    23   ar
    17    23    24   ar
    18    24    25   ar
    19    25    26   ar
    20    26    27   ar
    21    27    28   ar
    22    28    29   ar
    23    25    30    1
    24    30    31    1
    25    31    32    1
    26    19    20   ar
    27     3     4   ar
    28     4    33    1
    29    33    34    1
    30     4     5   ar
    31     5     6   ar
    32     6    35    1
    33    35    36    1
    34    35    37    1
    35    37    38    1
    36    38    39    1
    37    39    40    1
    38    39    41    1
    39     6     1   ar
    40    20    15   ar
    41    29    21   ar
    42    32    23    1
    43    29    24   ar
    44     9    10    1
    45    13    14    1
@<TRIPOS>MOLECULE
*****
 41 45 0 0 0
SMALL
GASTEIGER

@<TRIPOS>ATOM
      1 C         140.2615  144.6907  157.9376 C.ar    1  UNL1        0.0655
      2 C         140.8243  145.2622  159.2052 C.ar    1  UNL1        0.0337
      3 C         140.4490  144.6647  160.5288 C.ar    1  UNL1        0.0862
      4 C         139.5109  143.4956  160.5850 C.ar    1  UNL1        0.1534
      5 C         138.9481  142.9241  159.3174 C.ar    1  UNL1        0.0539
      6 C         139.3234  143.5217  157.9938 C.ar    1  UNL1        0.0647
      7 C         139.8859  146.4751  156.0870 C.2     1  UNL1        0.2497
      8 O         139.0518  146.9929  156.5685 O.2     1  UNL1       -0.2698
      9 N         140.6368  145.2883  156.6140 N.am    1  UNL1       -0.2794
     10 H         141.3760  144.9017  156.0912 H       1  UNL1        0.1552
     11 C         139.6833  148.3923  154.3454 C.2     1  UNL1        0.0048
     12 C         140.2612  147.0727  154.7634 C.2     1  UNL1        0.0580
     13 N         141.0117  145.2362  161.7964 N.pl3   1  UNL1       -0.2801
     14 H         140.6745  146.0942  162.1418 H       1  UNL1        0.1552
     15 C         142.0884  144.5003  162.5377 C.ar    1  UNL1        0.2207
     16 N         143.4776  144.4376  161.9754 N.ar    1  UNL1       -0.2120
     17 C         144.5542  143.7018  162.7167 C.ar    1  UNL1        0.1034
     18 C         144.2416  143.0287  164.0203 C.ar    1  UNL1        0.0400
     19 C         142.8523  143.0914  164.5826 C.ar    1  UNL1        0.0872
     20 N         141.7758  143.8273  163.8412 N.ar    1  UNL1       -0.2135
     21 C         142.5397  142.4184  165.8861 C.ar    1  UNL1        0.0364
     22 C         143.3739  142.4778  167.1314 C.ar    1  UNL1        0.0774
     23 N         142.6878  141.6639  168.1881 N.ar    1  UNL1       -0.3263
     24 C         141.4296  141.1014  167.5959 C.ar    1  UNL1        0.0559
     25 C         140.3554  140.2249  168.1684 C.ar    1  UNL1       -0.0063
     26 C         139.1897  139.8147  167.3182 C.ar    1  UNL1       -0.0028
     27 C         139.0982  140.2810  165.8955 C.ar    1  UNL1       -0.0002
     28 C         140.1724  141.1575  165.3230 C.ar    1  UNL1        0.0015
     29 C         141.3381  141.5677  166.1732 C.ar    1  UNL1        0.0184
     30 C         140.7028  139.9136  169.6012 C.3     1  UNL1        0.0298
     31 C         141.9215  140.4026  170.3264 C.3     1  UNL1        0.0292
     32 C         142.9139  141.2778  169.6198 C.3     1  UNL1        0.1064
     33 O         139.1356  142.8980  161.9086 O.3     1  UNL1       -0.4701
     34 C         137.9514  143.4275  162.6618 C.3     1  UNL1        0.2525
     35 N         138.7606  142.9501  156.7263 N.pl3   1  UNL1       -0.3033
     36 C         139.2354  142.2185  156.0666 C.3     1  UNL1        0.1123
     37 C         137.4058  143.3794  156.2466 C.3     1  UNL1        0.1082
     38 C         137.2298  143.8746  154.8416 C.3     1  UNL1        0.0938
     39 N         136.3786  143.1044  153.8762 N.3     1  UNL1       -0.2688
     40 C         136.1801  143.6140  152.4794 C.3     1  UNL1        0.0897
     41 C         135.7259  141.8246  154.3073 C.3     1  UNL1        0.0897
@<TRIPOS>BOND
     1    11    12    2
     2    12     7    1
     3     7     8    2
     4     7     9   am
     5     9     1    1
     6     1     2   ar
     7     2     3   ar
     8     3    13    1
     9    13    15    1
    10    15    16   ar
    11    16    17   ar
    12    17    18   ar
    13    18    19   ar
    14    19    21    1
    15    21    22   ar
    16    22    23   ar
    17    23    24   ar
    18    24    25   ar
    19    25    26   ar
    20    26    27   ar
    21    27    28   ar
    22    28    29   ar
    23    25    30    1
    24    30    31    1
    25    31    32    1
    26    19    20   ar
    27     3     4   ar
    28     4    33    1
    29    33    34    1
    30     4     5   ar
    31     5     6   ar
    32     6    35    1
    33    35    36    1
    34    35    37    1
    35    37    38    1
    36    38    39    1
    37    39    40    1
    38    39    41    1
    39     6     1   ar
    40    20    15   ar
    41    29    21   ar
    42    32    23    1
    43    29    24   ar
    44     9    10    1
    45    13    14    1
@<TRIPOS>MOLECULE
*****
 41 45 0 0 0
SMALL
GASTEIGER

@<TRIPOS>ATOM
      1 C         138.2078  140.8945  158.2947 C.ar    1  UNL1        0.0655
      2 C         137.6863  140.2113  159.5241 C.ar    1  UNL1        0.0337
      3 C         137.8796  140.8416  160.8714 C.ar    1  UNL1        0.0862
      4 C         138.5944  142.1549  160.9895 C.ar    1  UNL1        0.1534
      5 C         139.1160  142.8381  159.7602 C.ar    1  UNL1        0.0539
      6 C         138.9227  142.2079  158.4128 C.ar    1  UNL1        0.0647
      7 C         136.8726  140.6946  156.0750 C.2     1  UNL1        0.2497
      8 O         136.1178  141.4517  156.3048 O.2     1  UNL1       -0.2698
      9 N         138.0145  140.2643  156.9473 N.am    1  UNL1       -0.2794
     10 H         138.6370  139.5682  156.6356 H       1  UNL1        0.1552
     11 C         135.5190  139.1440  154.4896 C.2     1  UNL1        0.0048
     12 C         136.6793  140.0644  154.7276 C.2     1  UNL1        0.0580
     13 N         137.3581  140.1584  162.1008 N.pl3   1  UNL1       -0.2801
     14 H         136.3967  140.1895  162.3108 H       1  UNL1        0.1552
     15 C         138.3013  139.4279  163.0101 C.ar    1  UNL1        0.2207
     16 N         138.8776  138.1084  162.5895 N.ar    1  UNL1       -0.2120
     17 C         139.8207  137.3780  163.4989 C.ar    1  UNL1        0.1034
     18 C         140.1876  137.9669  164.8287 C.ar    1  UNL1        0.0400
     19 C         139.6113  139.2864  165.2493 C.ar    1  UNL1        0.0872
     20 N         138.6681  140.0168  164.3400 N.ar    1  UNL1       -0.2135
     21 C         139.9781  139.8754  166.5792 C.ar    1  UNL1        0.0364
     22 C         139.2232  139.6934  167.8625 C.ar    1  UNL1        0.0774
     23 N         139.9428  140.4553  168.9356 N.ar    1  UNL1       -0.3263
     24 C         141.1425  141.1081  168.3155 C.ar    1  UNL1        0.0559
     25 C         142.2179  141.9827  168.8888 C.ar    1  UNL1       -0.0063
     26 C         143.3151  142.4988  168.0058 C.ar    1  UNL1       -0.0028
     27 C         143.3369  142.1404  166.5494 C.ar    1  UNL1       -0.0002
     28 C         142.2615  141.2659  165.9761 C.ar    1  UNL1        0.0015
     29 C         141.1643  140.7497  166.8591 C.ar    1  UNL1        0.0184
     30 C         141.9468  142.1758  170.3584 C.3     1  UNL1        0.0298
     31 C         140.7920  141.5880  171.1141 C.3     1  UNL1        0.0292
     32 C         139.7900  140.7278  170.4027 C.3     1  UNL1        0.1064
     33 O         138.7878  142.7852  162.3369 O.3     1  UNL1       -0.4701
     34 C         137.8633  143.8738  162.7953 C.3     1  UNL1        0.2525
     35 N         139.4443  142.8911  157.1835 N.pl3   1  UNL1       -0.3033
     36 C         138.9354  143.6551  156.5892 C.3     1  UNL1        0.1123
     37 C         140.8023  142.5423  156.6506 C.3     1  UNL1        0.1082
     38 C         141.9475  143.4933  156.8352 C.3     1  UNL1        0.0938
     39 N         142.1778  144.1397  158.1690 N.3     1  UNL1       -0.2688
     40 C         142.8990  143.3912  159.2506 C.3     1  UNL1        0.0897
     41 C         141.6871  145.5345  158.4213 C.3     1  UNL1        0.0897
@<TRIPOS>BOND
     1    11    12    2
     2    12     7    1
     3     7     8    2
     4     7     9   am
     5     9     1    1
     6     1     2   ar
     7     2     3   ar
     8     3    13    1
     9    13    15    1
    10    15    16   ar
    11    16    17   ar
    12    17    18   ar
    13    18    19   ar
    14    19    21    1
    15    21    22   ar
    16    22    23   ar
    17    23    24   ar
    18    24    25   ar
    19    25    26   ar
    20    26    27   ar
    21    27    28   ar
    22    28    29   ar
    23    25    30    1
    24    30    31    1
    25    31    32    1
    26    19    20   ar
    27     3     4   ar
    28     4    33    1
    29    33    34    1
    30     4     5   ar
    31     5     6   ar
    32     6    35    1
    33    35    36    1
    34    35    37    1
    35    37    38    1
    36    38    39    1
    37    39    40    1
    38    39    41    1
    39     6     1   ar
    40    20    15   ar
    41    29    21   ar
    42    32    23    1
    43    29    24   ar
    44     9    10    1
    45    13    14    1
@<TRIPOS>MOLECULE
*****
 41 45 0 0 0
SMALL
GASTEIGER

@<TRIPOS>ATOM
      1 C         142.4336  139.5876  162.4815 C.ar    1  UNL1        0.0655
      2 C         142.9390  138.8671  161.2668 C.ar    1  UNL1        0.0337
      3 C         142.9697  139.5650  159.9394 C.ar    1  UNL1        0.0862
      4 C         142.4949  140.9834  159.8266 C.ar    1  UNL1        0.1534
      5 C         141.9895  141.7039  161.0414 C.ar    1  UNL1        0.0539
      6 C         141.9589  141.0059  162.3687 C.ar    1  UNL1        0.0647
      7 C         143.5794  138.9866  164.7345 C.2     1  UNL1        0.2497
      8 O         144.5115  139.5309  164.5593 O.2     1  UNL1       -0.2698
      9 N         142.4030  138.8896  163.8089 N.am    1  UNL1       -0.2794
     10 H         141.6109  138.3679  164.0726 H       1  UNL1        0.1552
     11 C         142.9702  138.9811  167.2601 C.2     1  UNL1        0.0048
     12 C         143.5488  138.2887  166.0618 C.2     1  UNL1        0.0580
     13 N         143.4751  138.8446  158.7247 N.pl3   1  UNL1       -0.2801
     14 H         144.4337  138.8682  158.5016 H       1  UNL1        0.1552
     15 C         142.5199  138.0880  157.8498 C.ar    1  UNL1        0.2207
     16 N         141.1359  138.6176  157.6170 N.ar    1  UNL1       -0.2120
     17 C         140.1808  137.8611  156.7421 C.ar    1  UNL1        0.1034
     18 C         140.6096  136.5750  156.1001 C.ar    1  UNL1        0.0400
     19 C         141.9936  136.0455  156.3329 C.ar    1  UNL1        0.0872
     20 N         142.9487  136.8020  157.2077 N.ar    1  UNL1       -0.2135
     21 C         142.4224  134.7594  155.6909 C.ar    1  UNL1        0.0364
     22 C         142.0056  134.2684  154.3361 C.ar    1  UNL1        0.0774
     23 N         142.6689  132.9442  154.0988 N.ar    1  UNL1       -0.3263
     24 C         143.4956  132.6167  155.3070 C.ar    1  UNL1        0.0559
     25 C         144.3675  131.4419  155.6382 C.ar    1  UNL1       -0.0063
     26 C         145.0869  131.3890  156.9533 C.ar    1  UNL1       -0.0028
     27 C         144.9345  132.5109  157.9372 C.ar    1  UNL1       -0.0002
     28 C         144.0627  133.6857  157.6059 C.ar    1  UNL1        0.0015
     29 C         143.3432  133.7386  156.2908 C.ar    1  UNL1        0.0184
     30 C         144.3346  130.4784  154.4803 C.3     1  UNL1        0.0298
     31 C         143.5573  130.6696  153.2116 C.3     1  UNL1        0.0292
     32 C         142.7244  131.9025  153.0210 C.3     1  UNL1        0.1064
     33 O         142.5255  141.6813  158.4993 O.3     1  UNL1       -0.4701
     34 C         143.7137  142.5130  158.1164 C.3     1  UNL1        0.2525
     35 N         141.4534  141.7265  163.5834 N.pl3   1  UNL1       -0.3033
     36 C         142.0306  142.3663  164.2567 C.3     1  UNL1        0.1123
     37 C         140.0125  141.6053  163.9820 C.3     1  UNL1        0.1082
     38 C         139.1625  140.5150  163.4000 C.3     1  UNL1        0.0938
     39 N         139.1252  139.1645  164.0517 N.3     1  UNL1       -0.2688
     40 C         138.9086  137.9357  163.2192 C.3     1  UNL1        0.0897
     41 C         139.3045  139.0428  165.5360 C.3     1  UNL1        0.0897
@<TRIPOS>BOND
     1    11    12    2
     2    12     7    1
     3     7     8    2
     4     7     9   am
     5     9     1    1
     6     1     2   ar
     7     2     3   ar
     8     3    13    1
     9    13    15    1
    10    15    16   ar
    11    16    17   ar
    12    17    18   ar
    13    18    19   ar
    14    19    21    1
    15    21    22   ar
    16    22    23   ar
    17    23    24   ar
    18    24    25   ar
    19    25    26   ar
    20    26    27   ar
    21    27    28   ar
    22    28    29   ar
    23    25    30    1
    24    30    31    1
    25    31    32    1
    26    19    20   ar
    27     3     4   ar
    28     4    33    1
    29    33    34    1
    30     4     5   ar
    31     5     6   ar
    32     6    35    1
    33    35    36    1
    34    35    37    1
    35    37    38    1
    36    38    39    1
    37    39    40    1
    38    39    41    1
    39     6     1   ar
    40    20    15   ar
    41    29    21   ar
    42    32    23    1
    43    29    24   ar
    44     9    10    1
    45    13    14    1
@<TRIPOS>MOLECULE
*****
 41 45 0 0 0
SMALL
GASTEIGER

@<TRIPOS>ATOM
      1 C         143.6629  141.3768  160.6409 C.ar    1  UNL1        0.0655
      2 C         143.2047  140.2531  161.5226 C.ar    1  UNL1        0.0337
      3 C         142.8734  138.9179  160.9248 C.ar    1  UNL1        0.0862
      4 C         143.0001  138.7063  159.4453 C.ar    1  UNL1        0.1534
      5 C         143.4583  139.8300  158.5635 C.ar    1  UNL1        0.0539
      6 C         143.7897  141.1652  159.1614 C.ar    1  UNL1        0.0647
      7 C         143.0705  143.3337  162.2439 C.2     1  UNL1        0.2497
      8 O         142.1321  142.9179  162.6208 O.2     1  UNL1       -0.2698
      9 N         143.9943  142.7120  161.2387 N.am    1  UNL1       -0.2794
     10 H         144.8180  143.1803  160.9714 H       1  UNL1        0.1552
     11 C         142.4507  145.3168  163.8037 C.2     1  UNL1        0.0048
     12 C         143.4019  144.6689  162.8417 C.2     1  UNL1        0.0580
     13 N         142.4152  137.7943  161.8066 N.pl3   1  UNL1       -0.2801
     14 H         142.9097  136.9430  161.8161 H       1  UNL1        0.1552
     15 C         141.2036  137.9676  162.6738 C.ar    1  UNL1        0.2207
     16 N         139.8816  137.4107  162.2355 N.ar    1  UNL1       -0.2120
     17 C         138.6701  137.5840  163.1027 C.ar    1  UNL1        0.1034
     18 C         138.7805  138.3143  164.4083 C.ar    1  UNL1        0.0400
     19 C         140.1025  138.8712  164.8466 C.ar    1  UNL1        0.0872
     20 N         141.3140  138.6979  163.9794 N.ar    1  UNL1       -0.2135
     21 C         140.2129  139.6015  166.1522 C.ar    1  UNL1        0.0364
     22 C         139.2743  139.4750  167.3154 C.ar    1  UNL1        0.0774
     23 N         139.7626  140.3818  168.4058 N.ar    1  UNL1       -0.3263
     24 C         141.0031  141.0688  167.9166 C.ar    1  UNL1        0.0559
     25 C         141.9153  142.0711  168.5595 C.ar    1  UNL1       -0.0063
     26 C         143.1056  142.5913  167.8096 C.ar    1  UNL1       -0.0028
     27 C         143.3839  142.1090  166.4168 C.ar    1  UNL1       -0.0002
     28 C         142.4718  141.1066  165.7739 C.ar    1  UNL1        0.0015
     29 C         141.2814  140.5865  166.5238 C.ar    1  UNL1        0.0184
     30 C         141.3996  142.3710  169.9431 C.3     1  UNL1        0.0298
     31 C         140.1775  141.7642  170.5662 C.3     1  UNL1        0.0292
     32 C         139.3590  140.7696  169.7975 C.3     1  UNL1        0.1064
     33 O         142.6688  137.3711  158.8475 O.3     1  UNL1       -0.4701
     34 C         142.6751  137.1939  157.3580 C.3     1  UNL1        0.2525
     35 N         144.2478  142.2888  158.2795 N.pl3   1  UNL1       -0.3033
     36 C         145.2792  142.6012  158.0940 C.3     1  UNL1        0.1123
     37 C         143.2418  143.1193  157.5391 C.3     1  UNL1        0.1082
     38 C         142.6759  144.3547  158.1743 C.3     1  UNL1        0.0938
     39 N         141.1943  144.4870  158.3680 N.3     1  UNL1       -0.2688
     40 C         140.4751  143.5630  159.3056 C.3     1  UNL1        0.0897
     41 C         140.4320  145.5431  157.6242 C.3     1  UNL1        0.0897
@<TRIPOS>BOND
     1    11    12    2
     2    12     7    1
     3     7     8    2
     4     7     9   am
     5     9     1    1
     6     1     2   ar
     7     2     3   ar
     8     3    13    1
     9    13    15    1
    10    15    16   ar
    11    16    17   ar
    12    17    18   ar
    13    18    19   ar
    14    19    21    1
    15    21    22   ar
    16    22    23   ar
    17    23    24   ar
    18    24    25   ar
    19    25    26   ar
    20    26    27   ar
    21    27    28   ar
    22    28    29   ar
    23    25    30    1
    24    30    31    1
    25    31    32    1
    26    19    20   ar
    27     3     4   ar
    28     4    33    1
    29    33    34    1
    30     4     5   ar
    31     5     6   ar
    32     6    35    1
    33    35    36    1
    34    35    37    1
    35    37    38    1
    36    38    39    1
    37    39    40    1
    38    39    41    1
    39     6     1   ar
    40    20    15   ar
    41    29    21   ar
    42    32    23    1
    43    29    24   ar
    44     9    10    1
    45    13    14    1
@<TRIPOS>MOLECULE
*****
 41 45 0 0 0
SMALL
GASTEIGER

@<TRIPOS>ATOM
      1 C         140.1008  141.6117  159.7775 C.ar    1  UNL1        0.0655
      2 C         141.1236  142.2082  160.6986 C.ar    1  UNL1        0.0337
      3 C         141.7595  143.5243  160.3617 C.ar    1  UNL1        0.0862
      4 C         141.3727  144.2440  159.1038 C.ar    1  UNL1        0.1534
      5 C         140.3500  143.6475  158.1827 C.ar    1  UNL1        0.0539
      6 C         139.7141  142.3314  158.5196 C.ar    1  UNL1        0.0647
      7 C         138.2591  140.2517  161.0055 C.2     1  UNL1        0.2497
      8 O         137.7522  141.1023  161.4695 O.2     1  UNL1       -0.2698
      9 N         139.4649  140.2956  160.1145 N.am    1  UNL1       -0.2794
     10 H         139.8390  139.4607  159.7508 H       1  UNL1        0.1552
     11 C         138.3287  137.9722  162.2503 C.2     1  UNL1        0.0048
     12 C         137.6232  138.9356  161.3425 C.2     1  UNL1        0.0580
     13 N         142.7822  144.1207  161.2827 N.pl3   1  UNL1       -0.2801
     14 H         143.0318  145.0688  161.1933 H       1  UNL1        0.1552
     15 C         143.4246  143.2725  162.3401 C.ar    1  UNL1        0.2207
     16 N         144.8076  142.7310  162.1296 N.ar    1  UNL1       -0.2120
     17 C         145.4499  141.8829  163.1869 C.ar    1  UNL1        0.1034
     18 C         144.7093  141.5763  164.4548 C.ar    1  UNL1        0.0400
     19 C         143.3264  142.1177  164.6654 C.ar    1  UNL1        0.0872
     20 N         142.6841  142.9659  163.6080 N.ar    1  UNL1       -0.2135
     21 C         142.5859  141.8111  165.9333 C.ar    1  UNL1        0.0364
     22 C         142.9689  142.2665  167.3102 C.ar    1  UNL1        0.0774
     23 N         141.9521  141.7320  168.2748 N.ar    1  UNL1       -0.3263
     24 C         140.9406  140.9463  167.4939 C.ar    1  UNL1        0.0559
     25 C         139.7135  140.1927  167.9137 C.ar    1  UNL1       -0.0063
     26 C         138.8781  139.4880  166.8864 C.ar    1  UNL1       -0.0028
     27 C         139.2698  139.5369  165.4393 C.ar    1  UNL1       -0.0002
     28 C         140.4969  140.2905  165.0195 C.ar    1  UNL1        0.0015
     29 C         141.3323  140.9952  166.0468 C.ar    1  UNL1        0.0184
     30 C         139.5648  140.3122  169.4083 C.3     1  UNL1        0.0298
     31 C         140.4933  141.0615  170.3175 C.3     1  UNL1        0.0292
     32 C         141.6870  141.7714  169.7506 C.3     1  UNL1        0.1064
     33 O         142.0086  145.5600  158.7669 O.3     1  UNL1       -0.4701
     34 C         142.1845  145.9627  157.3327 C.3     1  UNL1        0.2525
     35 N         138.6914  141.7351  157.5985 N.pl3   1  UNL1       -0.3033
     36 C         137.6394  142.0204  157.5101 C.3     1  UNL1        0.1123
     37 C         139.0772  140.6233  156.6684 C.3     1  UNL1        0.1082
     38 C         138.3431  140.4402  155.3732 C.3     1  UNL1        0.0938
     39 N         137.7703  139.1000  155.0188 N.3     1  UNL1       -0.2688
     40 C         136.3527  138.9931  154.5401 C.3     1  UNL1        0.0897
     41 C         138.6148  137.8667  155.1431 C.3     1  UNL1        0.0897
@<TRIPOS>BOND
     1    11    12    2
     2    12     7    1
     3     7     8    2
     4     7     9   am
     5     9     1    1
     6     1     2   ar
     7     2     3   ar
     8     3    13    1
     9    13    15    1
    10    15    16   ar
    11    16    17   ar
    12    17    18   ar
    13    18    19   ar
    14    19    21    1
    15    21    22   ar
    16    22    23   ar
    17    23    24   ar
    18    24    25   ar
    19    25    26   ar
    20    26    27   ar
    21    27    28   ar
    22    28    29   ar
    23    25    30    1
    24    30    31    1
    25    31    32    1
    26    19    20   ar
    27     3     4   ar
    28     4    33    1
    29    33    34    1
    30     4     5   ar
    31     5     6   ar
    32     6    35    1
    33    35    36    1
    34    35    37    1
    35    37    38    1
    36    38    39    1
    37    39    40    1
    38    39    41    1
    39     6     1   ar
    40    20    15   ar
    41    29    21   ar
    42    32    23    1
    43    29    24   ar
    44     9    10    1
    45    13    14    1
