@<TRIPOS>MOLECULE
*****
 26 28 0 0 0
SMALL
GASTEIGER

@<TRIPOS>ATOM
      1 C         145.7598  141.2252  163.9375 C.3     1  UNL1        0.0477
      2 C         144.4666  141.7351  163.3739 C.3     1  UNL1        0.1780
      3 C         144.7604  142.8165  164.3710 C.3     1  UNL1        0.0685
      4 C         143.8150  143.9706  164.5261 C.3     1  UNL1        0.1145
      5 N         142.5757  144.0433  163.6841 N.ar    1  UNL1       -0.2749
      6 C         141.4669  145.0512  163.6151 C.ar    1  UNL1        0.1779
      7 C         140.4878  144.5927  162.5753 C.ar    1  UNL1        0.3976
      8 N         140.9916  143.3015  162.0017 N.ar    1  UNL1       -0.1275
      9 C         142.2819  142.9619  162.6870 C.ar    1  UNL1        0.3057
     10 O         143.2274  141.8078  162.5319 O.3     1  UNL1       -0.4512
     11 N         139.2265  145.3011  162.1787 N.pl3   1  UNL1        0.1030
     12 O         139.2960  146.5484  161.3484 O.2     1  UNL1        0.0432
     13 O         137.8955  144.7621  162.6124 O.co2   1  UNL1       -0.5746
     14 C         144.6219  140.4766  162.5725 C.3     1  UNL1        0.2450
     15 O         144.4220  139.1415  163.2264 O.3     1  UNL1       -0.4717
     16 C         143.0441  138.6973  163.6188 C.ar    1  UNL1        0.1389
     17 C         142.5644  138.8957  165.0261 C.ar    1  UNL1        0.0400
     18 C         141.1865  138.4514  165.4184 C.ar    1  UNL1        0.0403
     19 C         140.2882  137.8088  164.4034 C.ar    1  UNL1        0.1470
     20 C         140.7679  137.6104  162.9962 C.ar    1  UNL1        0.0403
     21 C         142.1458  138.0546  162.6038 C.ar    1  UNL1        0.0400
     22 O         138.9103  137.3645  164.7958 O.3     1  UNL1       -0.4045
     23 C         138.1512  138.1164  165.8486 C.3     1  UNL1        0.5753
     24 F         137.3920  138.8683  166.9014 F       1  UNL1       -0.1328
     25 F         138.0166  136.8565  166.6514 F       1  UNL1       -0.1328
     26 F         138.2858  139.3764  165.0459 F       1  UNL1       -0.1328
@<TRIPOS>UNITY_ATOM_ATTR
11 1
charge 1
13 1
charge -1
@<TRIPOS>BOND
     1     2     1    1
     2     2    14    1
     3    14    15    1
     4    15    16    1
     5    16    17   ar
     6    17    18   ar
     7    18    19   ar
     8    19    22    1
     9    22    23    1
    10    23    24    1
    11    23    25    1
    12    23    26    1
    13    19    20   ar
    14    20    21   ar
    15     2     3    1
    16     3     4    1
    17     4     5    1
    18     5     6   ar
    19     6     7   ar
    20     7    11    1
    21    11    12    2
    22    11    13    1
    23     7     8   ar
    24     8     9   ar
    25     9    10    1
    26    10     2    1
    27    21    16   ar
    28     9     5   ar
@<TRIPOS>MOLECULE
*****
 26 28 0 0 0
SMALL
GASTEIGER

@<TRIPOS>ATOM
      1 C         137.6294  143.8739  163.2184 C.3     1  UNL1        0.0477
      2 C         138.4984  143.4256  164.3559 C.3     1  UNL1        0.1780
      3 C         137.8250  142.1291  164.0160 C.3     1  UNL1        0.0685
      4 C         138.1497  140.8888  164.7945 C.3     1  UNL1        0.1145
      5 N         139.1478  140.9449  165.9128 N.ar    1  UNL1       -0.2749
      6 C         139.6661  139.8939  166.8493 C.ar    1  UNL1        0.1779
      7 C         140.6598  140.5409  167.7679 C.ar    1  UNL1        0.3976
      8 N         140.7557  141.9917  167.3991 N.ar    1  UNL1       -0.1275
      9 C         139.8212  142.2414  166.2526 C.ar    1  UNL1        0.3057
     10 O         139.4965  143.4817  165.4742 O.3     1  UNL1       -0.4512
     11 N         141.4236  139.8572  168.8630 N.pl3   1  UNL1        0.1030
     12 O         142.8897  139.5862  168.6986 O.2     1  UNL1        0.0432
     13 O         140.7211  139.4445  170.1225 O.co2   1  UNL1       -0.5746
     14 C         138.8700  144.8778  164.3007 C.3     1  UNL1        0.2450
     15 O         139.8048  145.3729  163.2372 O.3     1  UNL1       -0.4717
     16 C         141.1438  144.7224  163.0533 C.ar    1  UNL1        0.1389
     17 C         142.3173  145.1778  163.8691 C.ar    1  UNL1        0.0400
     18 C         143.6563  144.5273  163.6852 C.ar    1  UNL1        0.0403
     19 C         143.8218  143.4213  162.6855 C.ar    1  UNL1        0.1470
     20 C         142.6484  142.9659  161.8697 C.ar    1  UNL1        0.0403
     21 C         141.3094  143.6164  162.0536 C.ar    1  UNL1        0.0400
     22 O         145.1608  142.7708  162.5016 O.3     1  UNL1       -0.4045
     23 C         145.4904  141.5097  163.2440 C.3     1  UNL1        0.5753
     24 F         145.8199  140.2485  163.9862 F       1  UNL1       -0.1328
     25 F         145.8825  142.3188  164.4446 F       1  UNL1       -0.1328
     26 F         145.0983  140.7005  162.0433 F       1  UNL1       -0.1328
@<TRIPOS>UNITY_ATOM_ATTR
11 1
charge 1
13 1
charge -1
@<TRIPOS>BOND
     1     2     1    1
     2     2    14    1
     3    14    15    1
     4    15    16    1
     5    16    17   ar
     6    17    18   ar
     7    18    19   ar
     8    19    22    1
     9    22    23    1
    10    23    24    1
    11    23    25    1
    12    23    26    1
    13    19    20   ar
    14    20    21   ar
    15     2     3    1
    16     3     4    1
    17     4     5    1
    18     5     6   ar
    19     6     7   ar
    20     7    11    1
    21    11    12    2
    22    11    13    1
    23     7     8   ar
    24     8     9   ar
    25     9    10    1
    26    10     2    1
    27    21    16   ar
    28     9     5   ar
@<TRIPOS>MOLECULE
*****
 26 28 0 0 0
SMALL
GASTEIGER

@<TRIPOS>ATOM
      1 C         140.5724  137.7172  164.3494 C.3     1  UNL1        0.0477
      2 C         140.4016  138.5992  165.5505 C.3     1  UNL1        0.1780
      3 C         141.8980  138.5051  165.5073 C.3     1  UNL1        0.0685
      4 C         142.7244  139.2194  166.5353 C.3     1  UNL1        0.1145
      5 N         142.0543  140.0278  167.6066 N.ar    1  UNL1       -0.2749
      6 C         142.6027  140.8348  168.7460 C.ar    1  UNL1        0.1779
      7 C         141.4452  141.4276  169.4934 C.ar    1  UNL1        0.3976
      8 N         140.1815  140.9870  168.8159 N.ar    1  UNL1       -0.1275
      9 C         140.5580  140.1218  167.6499 C.ar    1  UNL1        0.3057
     10 O         139.7316  139.4076  166.6218 O.3     1  UNL1       -0.4512
     11 N         141.5355  142.3067  170.7055 N.pl3   1  UNL1        0.1030
     12 O         140.6215  142.0725  171.8716 O.2     1  UNL1        0.0432
     13 O         142.5397  143.4200  170.7513 O.co2   1  UNL1       -0.5746
     14 C         138.9645  138.3870  165.1767 C.3     1  UNL1        0.2450
     15 O         138.4824  138.7630  163.8070 O.3     1  UNL1       -0.4717
     16 C         138.4233  140.2063  163.4026 C.ar    1  UNL1        0.1389
     17 C         139.0155  140.6438  162.0958 C.ar    1  UNL1        0.0400
     18 C         138.9565  142.0870  161.6914 C.ar    1  UNL1        0.0403
     19 C         138.3052  143.0928  162.5939 C.ar    1  UNL1        0.1470
     20 C         137.7131  142.6552  163.9007 C.ar    1  UNL1        0.0403
     21 C         137.7721  141.2120  164.3051 C.ar    1  UNL1        0.0400
     22 O         138.2462  144.5360  162.1895 O.3     1  UNL1       -0.4045
     23 C         139.4662  145.4000  162.3124 C.3     1  UNL1        0.5753
     24 F         140.6863  146.2639  162.4353 F       1  UNL1       -0.1328
     25 F         139.3029  145.4185  163.8034 F       1  UNL1       -0.1328
     26 F         139.6296  145.3815  160.8214 F       1  UNL1       -0.1328
@<TRIPOS>UNITY_ATOM_ATTR
11 1
charge 1
13 1
charge -1
@<TRIPOS>BOND
     1     2     1    1
     2     2    14    1
     3    14    15    1
     4    15    16    1
     5    16    17   ar
     6    17    18   ar
     7    18    19   ar
     8    19    22    1
     9    22    23    1
    10    23    24    1
    11    23    25    1
    12    23    26    1
    13    19    20   ar
    14    20    21   ar
    15     2     3    1
    16     3     4    1
    17     4     5    1
    18     5     6   ar
    19     6     7   ar
    20     7    11    1
    21    11    12    2
    22    11    13    1
    23     7     8   ar
    24     8     9   ar
    25     9    10    1
    26    10     2    1
    27    21    16   ar
    28     9     5   ar
@<TRIPOS>MOLECULE
*****
 26 28 0 0 0
SMALL
GASTEIGER

@<TRIPOS>ATOM
      1 C         140.5267  138.3525  162.5415 C.3     1  UNL1        0.0477
      2 C         139.9788  138.6064  163.9145 C.3     1  UNL1        0.1780
      3 C         141.3529  139.1871  164.0710 C.3     1  UNL1        0.0685
      4 C         141.7679  139.7893  165.3806 C.3     1  UNL1        0.1145
      5 N         140.8087  139.8109  166.5337 N.ar    1  UNL1       -0.2749
      6 C         140.9346  140.3330  167.9343 C.ar    1  UNL1        0.1779
      7 C         139.6383  140.0749  168.6434 C.ar    1  UNL1        0.3976
      8 N         138.7112  139.3934  167.6810 N.ar    1  UNL1       -0.1275
      9 C         139.4346  139.2303  166.3771 C.ar    1  UNL1        0.3057
     10 O         139.0196  138.6280  165.0676 O.3     1  UNL1       -0.4512
     11 N         139.3241  140.4351  170.0652 N.pl3   1  UNL1        0.1030
     12 O         139.1830  139.3569  171.0984 O.2     1  UNL1        0.0432
     13 O         139.1510  141.8735  170.4538 O.co2   1  UNL1       -0.5746
     14 C         138.7949  137.9376  163.2812 C.3     1  UNL1        0.2450
     15 O         137.8856  138.7187  162.3795 O.3     1  UNL1       -0.4717
     16 C         137.9624  140.2164  162.3517 C.ar    1  UNL1        0.1389
     17 C         137.4641  141.0148  163.5196 C.ar    1  UNL1        0.0400
     18 C         137.5409  142.5126  163.4918 C.ar    1  UNL1        0.0403
     19 C         138.1162  143.2119  162.2959 C.ar    1  UNL1        0.1470
     20 C         138.6146  142.4136  161.1280 C.ar    1  UNL1        0.0403
     21 C         138.5377  140.9158  161.1558 C.ar    1  UNL1        0.0400
     22 O         138.1930  144.7097  162.2681 O.3     1  UNL1       -0.4045
     23 C         139.5078  145.3975  162.4879 C.3     1  UNL1        0.5753
     24 F         140.8225  146.0854  162.7079 F       1  UNL1       -0.1328
     25 F         139.6917  145.5203  161.0044 F       1  UNL1       -0.1328
     26 F         139.3239  145.2748  163.9716 F       1  UNL1       -0.1328
@<TRIPOS>UNITY_ATOM_ATTR
11 1
charge 1
13 1
charge -1
@<TRIPOS>BOND
     1     2     1    1
     2     2    14    1
     3    14    15    1
     4    15    16    1
     5    16    17   ar
     6    17    18   ar
     7    18    19   ar
     8    19    22    1
     9    22    23    1
    10    23    24    1
    11    23    25    1
    12    23    26    1
    13    19    20   ar
    14    20    21   ar
    15     2     3    1
    16     3     4    1
    17     4     5    1
    18     5     6   ar
    19     6     7   ar
    20     7    11    1
    21    11    12    2
    22    11    13    1
    23     7     8   ar
    24     8     9   ar
    25     9    10    1
    26    10     2    1
    27    21    16   ar
    28     9     5   ar
@<TRIPOS>MOLECULE
*****
 26 28 0 0 0
SMALL
GASTEIGER

@<TRIPOS>ATOM
      1 C         140.3448  138.1591  164.2993 C.3     1  UNL1        0.0477
      2 C         140.2322  138.9947  165.5399 C.3     1  UNL1        0.1780
      3 C         141.7032  138.7013  165.5561 C.3     1  UNL1        0.0685
      4 C         142.5641  139.2446  166.6576 C.3     1  UNL1        0.1145
      5 N         141.9542  140.0813  167.7430 N.ar    1  UNL1       -0.2749
      6 C         142.5467  140.7485  168.9488 C.ar    1  UNL1        0.1779
      7 C         141.4419  141.4541  169.6778 C.ar    1  UNL1        0.3976
      8 N         140.1666  141.2232  168.9225 N.ar    1  UNL1       -0.1275
      9 C         140.4833  140.3747  167.7267 C.ar    1  UNL1        0.3057
     10 O         139.6223  139.8314  166.6252 O.3     1  UNL1       -0.4512
     11 N         141.5868  142.2509  170.9404 N.pl3   1  UNL1        0.1030
     12 O         142.6864  143.2634  171.0663 O.2     1  UNL1        0.0432
     13 O         140.6321  142.0353  172.0771 O.co2   1  UNL1       -0.5746
     14 C         138.8004  138.9979  165.0928 C.3     1  UNL1        0.2450
     15 O         137.9529  140.2181  165.2992 O.3     1  UNL1       -0.4717
     16 C         138.1506  141.4246  164.4302 C.ar    1  UNL1        0.1389
     17 C         138.8666  142.6276  164.9687 C.ar    1  UNL1        0.0400
     18 C         139.0644  143.8341  164.0996 C.ar    1  UNL1        0.0403
     19 C         138.5461  143.8375  162.6919 C.ar    1  UNL1        0.1470
     20 C         137.8302  142.6344  162.1534 C.ar    1  UNL1        0.0403
     21 C         137.6324  141.4280  163.0225 C.ar    1  UNL1        0.0400
     22 O         138.7439  145.0439  161.8229 O.3     1  UNL1       -0.4045
     23 C         140.0617  145.2710  161.1434 C.3     1  UNL1        0.5753
     24 F         141.3796  145.4980  160.4638 F       1  UNL1       -0.1328
     25 F         140.4235  146.2881  162.1848 F       1  UNL1       -0.1328
     26 F         139.7000  144.2538  160.1019 F       1  UNL1       -0.1328
@<TRIPOS>UNITY_ATOM_ATTR
11 1
charge 1
13 1
charge -1
@<TRIPOS>BOND
     1     2     1    1
     2     2    14    1
     3    14    15    1
     4    15    16    1
     5    16    17   ar
     6    17    18   ar
     7    18    19   ar
     8    19    22    1
     9    22    23    1
    10    23    24    1
    11    23    25    1
    12    23    26    1
    13    19    20   ar
    14    20    21   ar
    15     2     3    1
    16     3     4    1
    17     4     5    1
    18     5     6   ar
    19     6     7   ar
    20     7    11    1
    21    11    12    2
    22    11    13    1
    23     7     8   ar
    24     8     9   ar
    25     9    10    1
    26    10     2    1
    27    21    16   ar
    28     9     5   ar
@<TRIPOS>MOLECULE
*****
 26 28 0 0 0
SMALL
GASTEIGER

@<TRIPOS>ATOM
      1 C         144.9407  139.8391  164.2791 C.3     1  UNL1        0.0477
      2 C         143.7018  140.5911  163.8922 C.3     1  UNL1        0.1780
      3 C         144.6741  141.7283  163.9989 C.3     1  UNL1        0.0685
      4 C         144.2192  143.1317  163.7282 C.3     1  UNL1        0.1145
      5 N         142.7921  143.3980  163.3508 N.ar    1  UNL1       -0.2749
      6 C         142.0592  144.6664  163.0279 C.ar    1  UNL1        0.1779
      7 C         140.6340  144.3130  162.7217 C.ar    1  UNL1        0.3976
      8 N         140.4861  142.8263  162.8553 N.ar    1  UNL1       -0.1275
      9 C         141.8199  142.2608  163.2441 C.ar    1  UNL1        0.3057
     10 O         142.2747  140.8573  163.5148 O.3     1  UNL1       -0.4512
     11 N         139.5474  145.2771  162.3475 N.pl3   1  UNL1        0.1030
     12 O         138.1086  144.8876  162.5156 O.2     1  UNL1        0.0432
     13 O         139.8996  146.6305  161.8052 O.co2   1  UNL1       -0.5746
     14 C         143.1598  139.1927  163.9198 C.3     1  UNL1        0.2450
     15 O         142.8056  138.5513  165.2287 O.3     1  UNL1       -0.4717
     16 C         142.0579  139.3321  166.2686 C.ar    1  UNL1        0.1389
     17 C         142.7675  139.8128  167.4996 C.ar    1  UNL1        0.0400
     18 C         142.0198  140.5936  168.5395 C.ar    1  UNL1        0.0403
     19 C         140.5626  140.8937  168.3483 C.ar    1  UNL1        0.1470
     20 C         139.8531  140.4129  167.1173 C.ar    1  UNL1        0.0403
     21 C         140.6007  139.6322  166.0774 C.ar    1  UNL1        0.0400
     22 O         139.8149  141.6744  169.3882 O.3     1  UNL1       -0.4045
     23 C         140.2645  143.0577  169.7548 C.3     1  UNL1        0.5753
     24 F         140.7141  144.4411  170.1212 F       1  UNL1       -0.1328
     25 F         140.4289  142.6262  171.1819 F       1  UNL1       -0.1328
     26 F         140.1001  143.4893  168.3276 F       1  UNL1       -0.1328
@<TRIPOS>UNITY_ATOM_ATTR
11 1
charge 1
13 1
charge -1
@<TRIPOS>BOND
     1     2     1    1
     2     2    14    1
     3    14    15    1
     4    15    16    1
     5    16    17   ar
     6    17    18   ar
     7    18    19   ar
     8    19    22    1
     9    22    23    1
    10    23    24    1
    11    23    25    1
    12    23    26    1
    13    19    20   ar
    14    20    21   ar
    15     2     3    1
    16     3     4    1
    17     4     5    1
    18     5     6   ar
    19     6     7   ar
    20     7    11    1
    21    11    12    2
    22    11    13    1
    23     7     8   ar
    24     8     9   ar
    25     9    10    1
    26    10     2    1
    27    21    16   ar
    28     9     5   ar
@<TRIPOS>MOLECULE
*****
 26 28 0 0 0
SMALL
GASTEIGER

@<TRIPOS>ATOM
      1 C         144.6018  139.5838  163.8735 C.3     1  UNL1        0.0477
      2 C         144.0681  140.4447  164.9798 C.3     1  UNL1        0.1780
      3 C         143.4232  139.1374  165.3329 C.3     1  UNL1        0.0685
      4 C         142.5329  139.0412  166.5363 C.3     1  UNL1        0.1145
      5 N         142.2876  140.2523  167.3865 N.ar    1  UNL1       -0.2749
      6 C         141.4647  140.4605  168.6233 C.ar    1  UNL1        0.1779
      7 C         141.6011  141.8966  169.0345 C.ar    1  UNL1        0.3976
      8 N         142.5083  142.5759  168.0519 N.ar    1  UNL1       -0.1275
      9 C         142.9326  141.5597  167.0334 C.ar    1  UNL1        0.3057
     10 O         143.8229  141.6559  165.8300 O.3     1  UNL1       -0.4512
     11 N         140.9455  142.5403  170.2202 N.pl3   1  UNL1        0.1030
     12 O         139.9078  143.6043  170.0175 O.2     1  UNL1        0.0432
     13 O         141.3276  142.1201  171.6085 O.co2   1  UNL1       -0.5746
     14 C         144.8985  141.4531  164.2425 C.3     1  UNL1        0.2450
     15 O         144.3454  142.1350  163.0263 O.3     1  UNL1       -0.4717
     16 C         143.0598  142.9026  163.1162 C.ar    1  UNL1        0.1389
     17 C         143.0779  144.3545  163.4925 C.ar    1  UNL1        0.0400
     18 C         141.7923  145.1220  163.5824 C.ar    1  UNL1        0.0403
     19 C         140.4886  144.4376  163.2960 C.ar    1  UNL1        0.1470
     20 C         140.4705  142.9857  162.9197 C.ar    1  UNL1        0.0403
     21 C         141.7561  142.2182  162.8298 C.ar    1  UNL1        0.0400
     22 O         139.2030  145.2052  163.3859 O.3     1  UNL1       -0.4045
     23 C         138.1155  144.7415  164.3092 C.3     1  UNL1        0.5753
     24 F         137.0280  144.2778  165.2324 F       1  UNL1       -0.1328
     25 F         138.9001  145.2429  165.4852 F       1  UNL1       -0.1328
     26 F         137.3309  144.2401  163.1331 F       1  UNL1       -0.1328
@<TRIPOS>UNITY_ATOM_ATTR
11 1
charge 1
13 1
charge -1
@<TRIPOS>BOND
     1     2     1    1
     2     2    14    1
     3    14    15    1
     4    15    16    1
     5    16    17   ar
     6    17    18   ar
     7    18    19   ar
     8    19    22    1
     9    22    23    1
    10    23    24    1
    11    23    25    1
    12    23    26    1
    13    19    20   ar
    14    20    21   ar
    15     2     3    1
    16     3     4    1
    17     4     5    1
    18     5     6   ar
    19     6     7   ar
    20     7    11    1
    21    11    12    2
    22    11    13    1
    23     7     8   ar
    24     8     9   ar
    25     9    10    1
    26    10     2    1
    27    21    16   ar
    28     9     5   ar
@<TRIPOS>MOLECULE
*****
 26 28 0 0 0
SMALL
GASTEIGER

@<TRIPOS>ATOM
      1 C         144.8448  141.0050  164.3345 C.3     1  UNL1        0.0477
      2 C         144.5926  140.6666  162.8951 C.3     1  UNL1        0.1780
      3 C         143.9043  139.5109  163.5587 C.3     1  UNL1        0.0685
      4 C         143.2332  138.4591  162.7260 C.3     1  UNL1        0.1145
      5 N         143.2506  138.5630  161.2297 N.ar    1  UNL1       -0.2749
      6 C         142.6789  137.6853  160.1560 C.ar    1  UNL1        0.1779
      7 C         143.0139  138.2986  158.8288 C.ar    1  UNL1        0.3976
      8 N         143.7927  139.5553  159.0822 N.ar    1  UNL1       -0.1275
      9 C         143.9389  139.7187  160.5661 C.ar    1  UNL1        0.3057
     10 O         144.6099  140.7705  161.3988 O.3     1  UNL1       -0.4512
     11 N         142.6365  137.7513  157.4841 N.pl3   1  UNL1        0.1030
     12 O         143.6852  137.5690  156.4273 O.2     1  UNL1        0.0432
     13 O         141.2103  137.3864  157.1963 O.co2   1  UNL1       -0.5746
     14 C         145.3685  141.9398  162.7313 C.3     1  UNL1        0.2450
     15 O         144.8177  143.0506  161.8871 O.3     1  UNL1       -0.4717
     16 C         143.4735  143.6367  162.2026 C.ar    1  UNL1        0.1389
     17 C         143.2944  144.4877  163.4247 C.ar    1  UNL1        0.0400
     18 C         141.9501  145.0737  163.7401 C.ar    1  UNL1        0.0403
     19 C         140.7849  144.8087  162.8334 C.ar    1  UNL1        0.1470
     20 C         140.9640  143.9577  161.6113 C.ar    1  UNL1        0.0403
     21 C         142.3083  143.3717  161.2958 C.ar    1  UNL1        0.0400
     22 O         139.4407  145.3948  163.1488 O.3     1  UNL1       -0.4045
     23 C         138.4588  144.6179  163.9748 C.3     1  UNL1        0.5753
     24 F         137.4768  143.8408  164.8007 F       1  UNL1       -0.1328
     25 F         139.0245  145.2290  165.2223 F       1  UNL1       -0.1328
     26 F         137.8930  144.0066  162.7272 F       1  UNL1       -0.1328
@<TRIPOS>UNITY_ATOM_ATTR
11 1
charge 1
13 1
charge -1
@<TRIPOS>BOND
     1     2     1    1
     2     2    14    1
     3    14    15    1
     4    15    16    1
     5    16    17   ar
     6    17    18   ar
     7    18    19   ar
     8    19    22    1
     9    22    23    1
    10    23    24    1
    11    23    25    1
    12    23    26    1
    13    19    20   ar
    14    20    21   ar
    15     2     3    1
    16     3     4    1
    17     4     5    1
    18     5     6   ar
    19     6     7   ar
    20     7    11    1
    21    11    12    2
    22    11    13    1
    23     7     8   ar
    24     8     9   ar
    25     9    10    1
    26    10     2    1
    27    21    16   ar
    28     9     5   ar
@<TRIPOS>MOLECULE
*****
 26 28 0 0 0
SMALL
GASTEIGER

@<TRIPOS>ATOM
      1 C         145.6473  141.1548  163.9279 C.3     1  UNL1        0.0477
      2 C         144.3304  141.6589  163.4163 C.3     1  UNL1        0.1780
      3 C         144.7820  142.8569  164.1978 C.3     1  UNL1        0.0685
      4 C         143.9187  144.0820  164.2580 C.3     1  UNL1        0.1145
      5 N         142.6038  144.1092  163.5367 N.ar    1  UNL1       -0.2749
      6 C         141.5472  145.1671  163.4152 C.ar    1  UNL1        0.1779
      7 C         140.4427  144.6228  162.5586 C.ar    1  UNL1        0.3976
      8 N         140.8166  143.2286  162.1507 N.ar    1  UNL1       -0.1275
      9 C         142.1522  142.9111  162.7552 C.ar    1  UNL1        0.3057
     10 O         143.0155  141.6860  162.6950 O.3     1  UNL1       -0.4512
     11 N         139.1851  145.3458  162.1769 N.pl3   1  UNL1        0.1030
     12 O         137.8548  144.8355  162.6458 O.2     1  UNL1        0.0432
     13 O         139.2577  146.5791  161.3262 O.co2   1  UNL1       -0.5746
     14 C         144.3362  140.2858  162.8125 C.3     1  UNL1        0.2450
     15 O         143.9021  139.1052  163.6297 O.3     1  UNL1       -0.4717
     16 C         142.9057  139.2846  164.7364 C.ar    1  UNL1        0.1389
     17 C         141.4444  139.4009  164.4185 C.ar    1  UNL1        0.0400
     18 C         140.4480  139.5803  165.5252 C.ar    1  UNL1        0.0403
     19 C         140.9129  139.6434  166.9500 C.ar    1  UNL1        0.1470
     20 C         142.3741  139.5272  167.2680 C.ar    1  UNL1        0.0403
     21 C         143.3706  139.3478  166.1612 C.ar    1  UNL1        0.0400
     22 O         139.9164  139.8228  168.0568 O.3     1  UNL1       -0.4045
     23 C         140.2419  140.7085  169.2228 C.3     1  UNL1        0.5753
     24 F         140.5673  141.5944  170.3888 F       1  UNL1       -0.1328
     25 F         140.4741  139.4980  170.0776 F       1  UNL1       -0.1328
     26 F         140.0097  141.9191  168.3680 F       1  UNL1       -0.1328
@<TRIPOS>UNITY_ATOM_ATTR
11 1
charge 1
13 1
charge -1
@<TRIPOS>BOND
     1     2     1    1
     2     2    14    1
     3    14    15    1
     4    15    16    1
     5    16    17   ar
     6    17    18   ar
     7    18    19   ar
     8    19    22    1
     9    22    23    1
    10    23    24    1
    11    23    25    1
    12    23    26    1
    13    19    20   ar
    14    20    21   ar
    15     2     3    1
    16     3     4    1
    17     4     5    1
    18     5     6   ar
    19     6     7   ar
    20     7    11    1
    21    11    12    2
    22    11    13    1
    23     7     8   ar
    24     8     9   ar
    25     9    10    1
    26    10     2    1
    27    21    16   ar
    28     9     5   ar
