@<TRIPOS>MOLECULE
*****
 29 32 0 0 0
SMALL
GASTEIGER

@<TRIPOS>ATOM
      1 N         139.2109  138.3400  164.4562 N.3     1  UNL1       -0.2727
      2 C         138.2996  138.2073  165.6401 C.3     1  UNL1        0.0724
      3 C         138.5950  138.9620  166.9023 C.3     1  UNL1        0.0220
      4 C         139.8018  139.8495  166.9805 C.3     1  UNL1        0.0329
      5 C         140.7131  139.9823  165.7966 C.3     1  UNL1        0.0220
      6 C         140.4177  139.2275  164.5344 C.3     1  UNL1        0.0724
      7 C         138.8904  139.7167  168.1646 C.3     1  UNL1        0.0898
      8 C         139.1858  140.4714  169.4267 C.2     1  UNL1        0.2307
      9 O         138.2744  140.3387  170.6108 O.2     1  UNL1       -0.2745
     10 N         140.3925  141.3589  169.5049 N.am    1  UNL1       -0.2423
     11 C         140.6879  142.1136  170.7672 C.3     1  UNL1        0.1215
     12 C         141.3039  141.4917  168.3210 C.ar    1  UNL1        0.1333
     13 N         142.5106  142.3792  168.3992 N.ar    1  UNL1       -0.2291
     14 C         143.4220  142.5120  167.2152 C.ar    1  UNL1        0.1003
     15 C         143.1266  141.7572  165.9530 C.ar    1  UNL1        0.0204
     16 C         141.9198  140.8698  165.8748 C.ar    1  UNL1        0.0001
     17 C         141.0085  140.7370  167.0587 C.ar    1  UNL1        0.0098
     18 C         138.9156  137.5853  163.1939 C.3     1  UNL1        0.0722
     19 C         138.6002  140.5007  157.9594 C.2     1  UNL1        0.4049
     20 O         139.7057  140.3609  156.9552 O.2     1  UNL1       -0.2262
     21 N         138.6790  139.7718  159.2680 N.am    1  UNL1       -0.2460
     22 C         137.5735  139.9116  160.2721 C.3     1  UNL1        0.0968
     23 C         137.6523  139.1828  161.5808 C.3     1  UNL1        0.0231
     24 C         138.8367  138.3141  161.8853 C.3     1  UNL1        0.0194
     25 C         139.9423  138.1744  160.8812 C.3     1  UNL1        0.0231
     26 C         139.8634  138.9032  159.5725 C.3     1  UNL1        0.0968
     27 O         137.4158  141.3693  157.6548 O.3     1  UNL1       -0.4345
     28 C         135.3387  140.7001  156.2449 C.3     1  UNL1        0.0513
     29 C         136.7277  141.2604  156.3264 C.3     1  UNL1        0.2102
@<TRIPOS>BOND
     1    28    29    1
     2    29    27    1
     3    27    19    1
     4    19    20    2
     5    19    21   am
     6    21    22    1
     7    22    23    1
     8    23    24    1
     9    24    18    1
    10    18     1    1
    11     1     2    1
    12     2     3    1
    13     3     4    1
    14     4     5    1
    15     5     6    1
    16     4     7    1
    17     7     8    1
    18     8     9    2
    19     8    10   am
    20    10    11    1
    21    10    12    1
    22    12    13   ar
    23    13    14   ar
    24    14    15   ar
    25    15    16   ar
    26    16    17   ar
    27    24    25    1
    28    25    26    1
    29    26    21    1
    30     6     1    1
    31    17    12   ar
    32    17     4    1
@<TRIPOS>MOLECULE
*****
 29 32 0 0 0
SMALL
GASTEIGER

@<TRIPOS>ATOM
      1 N         139.2152  138.3397  164.4681 N.3     1  UNL1       -0.2727
      2 C         138.2962  138.2061  165.6460 C.3     1  UNL1        0.0724
      3 C         138.5835  138.9597  166.9107 C.3     1  UNL1        0.0220
      4 C         139.7898  139.8470  166.9974 C.3     1  UNL1        0.0329
      5 C         140.7089  139.9806  165.8196 C.3     1  UNL1        0.0220
      6 C         140.4216  139.2269  164.5549 C.3     1  UNL1        0.0724
      7 C         138.8708  139.7134  168.1754 C.3     1  UNL1        0.0898
      8 C         139.1581  140.4670  169.4401 C.2     1  UNL1        0.2307
      9 O         138.2390  140.3335  170.6181 O.2     1  UNL1       -0.2745
     10 N         140.3644  141.3543  169.5269 N.am    1  UNL1       -0.2423
     11 C         140.6517  142.1079  170.7916 C.3     1  UNL1        0.1215
     12 C         141.2835  141.4879  168.3490 C.ar    1  UNL1        0.1333
     13 N         142.4898  142.3751  168.4358 N.ar    1  UNL1       -0.2291
     14 C         143.4089  142.5087  167.2578 C.ar    1  UNL1        0.1003
     15 C         143.1216  141.7550  165.9931 C.ar    1  UNL1        0.0204
     16 C         141.9152  140.8678  165.9064 C.ar    1  UNL1        0.0001
     17 C         140.9962  140.7342  167.0842 C.ar    1  UNL1        0.0098
     18 C         138.9280  137.5861  163.2033 C.3     1  UNL1        0.0722
     19 C         138.6553  140.5045  157.9681 C.2     1  UNL1        0.4049
     20 O         137.4439  141.3206  157.6265 O.2     1  UNL1       -0.2262
     21 N         138.7235  139.7749  159.2769 N.am    1  UNL1       -0.2460
     22 C         139.9348  138.9588  159.6184 C.3     1  UNL1        0.0968
     23 C         140.0030  138.2292  160.9272 C.3     1  UNL1        0.0231
     24 C         138.8598  138.3156  161.8945 C.3     1  UNL1        0.0194
     25 C         137.6484  139.1318  161.5530 C.3     1  UNL1        0.0231
     26 C         137.5803  139.8614  160.2442 C.3     1  UNL1        0.0968
     27 O         139.7985  140.4180  157.0008 O.3     1  UNL1       -0.4345
     28 C         140.9766  142.4351  158.1382 C.3     1  UNL1        0.0513
     29 C         140.8455  141.4920  156.9792 C.3     1  UNL1        0.2102
@<TRIPOS>BOND
     1    28    29    1
     2    29    27    1
     3    27    19    1
     4    19    20    2
     5    19    21   am
     6    21    22    1
     7    22    23    1
     8    23    24    1
     9    24    18    1
    10    18     1    1
    11     1     2    1
    12     2     3    1
    13     3     4    1
    14     4     5    1
    15     5     6    1
    16     4     7    1
    17     7     8    1
    18     8     9    2
    19     8    10   am
    20    10    11    1
    21    10    12    1
    22    12    13   ar
    23    13    14   ar
    24    14    15   ar
    25    15    16   ar
    26    16    17   ar
    27    24    25    1
    28    25    26    1
    29    26    21    1
    30     6     1    1
    31    17    12   ar
    32    17     4    1
@<TRIPOS>MOLECULE
*****
 29 32 0 0 0
SMALL
GASTEIGER

@<TRIPOS>ATOM
      1 N         143.4173  141.8702  165.6474 N.3     1  UNL1       -0.2727
      2 C         143.3887  142.4734  167.0204 C.3     1  UNL1        0.0724
      3 C         142.2973  142.1021  167.9801 C.3     1  UNL1        0.0220
      4 C         141.2346  141.1276  167.5667 C.3     1  UNL1        0.0329
      5 C         141.2632  140.5244  166.1937 C.3     1  UNL1        0.0220
      6 C         142.3545  140.8957  165.2340 C.3     1  UNL1        0.0724
      7 C         141.2059  141.7308  168.9399 C.3     1  UNL1        0.0898
      8 C         140.1146  141.3595  169.8995 C.2     1  UNL1        0.2307
      9 O         140.0859  141.9627  171.2726 O.2     1  UNL1       -0.2745
     10 N         139.0518  140.3850  169.4862 N.am    1  UNL1       -0.2423
     11 C         137.9604  140.0137  170.4459 C.3     1  UNL1        0.1215
     12 C         139.0804  139.7818  168.1131 C.ar    1  UNL1        0.1333
     13 N         138.0177  138.8072  167.6998 N.ar    1  UNL1       -0.2291
     14 C         138.0463  138.2040  166.3266 C.ar    1  UNL1        0.1003
     15 C         139.1377  138.5753  165.3670 C.ar    1  UNL1        0.0204
     16 C         140.2004  139.5498  165.7803 C.ar    1  UNL1        0.0001
     17 C         140.1718  140.1531  167.1534 C.ar    1  UNL1        0.0098
     18 C         144.5087  142.2415  164.6876 C.3     1  UNL1        0.0722
     19 C         143.1853  143.4514  158.9619 C.2     1  UNL1        0.4049
     20 O         143.7688  142.6125  157.8638 O.2     1  UNL1       -0.2262
     21 N         143.5162  143.1489  160.3933 N.am    1  UNL1       -0.2460
     22 C         142.9327  143.9878  161.4913 C.3     1  UNL1        0.0968
     23 C         143.2635  143.6854  162.9228 C.3     1  UNL1        0.0231
     24 C         144.1779  142.5440  163.2562 C.3     1  UNL1        0.0194
     25 C         144.7613  141.7050  162.1581 C.3     1  UNL1        0.0231
     26 C         144.4305  142.0075  160.7267 C.3     1  UNL1        0.0968
     27 O         142.2710  144.5928  158.6285 O.3     1  UNL1       -0.4345
     28 C         140.2553  143.0050  158.2209 C.3     1  UNL1        0.0513
     29 C         140.7901  144.3682  158.5461 C.3     1  UNL1        0.2102
@<TRIPOS>BOND
     1    28    29    1
     2    29    27    1
     3    27    19    1
     4    19    20    2
     5    19    21   am
     6    21    22    1
     7    22    23    1
     8    23    24    1
     9    24    18    1
    10    18     1    1
    11     1     2    1
    12     2     3    1
    13     3     4    1
    14     4     5    1
    15     5     6    1
    16     4     7    1
    17     7     8    1
    18     8     9    2
    19     8    10   am
    20    10    11    1
    21    10    12    1
    22    12    13   ar
    23    13    14   ar
    24    14    15   ar
    25    15    16   ar
    26    16    17   ar
    27    24    25    1
    28    25    26    1
    29    26    21    1
    30     6     1    1
    31    17    12   ar
    32    17     4    1
@<TRIPOS>MOLECULE
*****
 29 32 0 0 0
SMALL
GASTEIGER

@<TRIPOS>ATOM
      1 N         143.4107  141.8621  165.5257 N.3     1  UNL1       -0.2727
      2 C         143.4314  142.4595  166.9014 C.3     1  UNL1        0.0724
      3 C         142.3629  142.1007  167.8910 C.3     1  UNL1        0.0220
      4 C         141.2735  141.1445  167.5049 C.3     1  UNL1        0.0329
      5 C         141.2528  140.5471  166.1292 C.3     1  UNL1        0.0220
      6 C         142.3214  140.9059  165.1396 C.3     1  UNL1        0.0724
      7 C         141.2942  141.7419  168.8807 C.3     1  UNL1        0.0898
      8 C         140.2257  141.3831  169.8703 C.2     1  UNL1        0.2307
      9 O         140.2463  141.9805  171.2461 O.2     1  UNL1       -0.2745
     10 N         139.1364  140.4269  169.4842 N.am    1  UNL1       -0.2423
     11 C         138.0677  140.0681  170.4739 C.3     1  UNL1        0.1215
     12 C         139.1156  139.8295  168.1085 C.ar    1  UNL1        0.1333
     13 N         138.0263  138.8733  167.7224 N.ar    1  UNL1       -0.2291
     14 C         138.0056  138.2759  166.3466 C.ar    1  UNL1        0.1003
     15 C         139.0742  138.6347  165.3570 C.ar    1  UNL1        0.0204
     16 C         140.1635  139.5909  165.7431 C.ar    1  UNL1        0.0001
     17 C         140.1842  140.1883  167.1188 C.ar    1  UNL1        0.0098
     18 C         144.4793  142.2209  164.5360 C.3     1  UNL1        0.0722
     19 C         143.8182  140.7745  158.7507 C.2     1  UNL1        0.4049
     20 O         143.5382  141.8444  157.7373 O.2     1  UNL1       -0.2262
     21 N         143.9835  141.1361  160.1970 N.am    1  UNL1       -0.2460
     22 C         144.2635  140.0662  161.2103 C.3     1  UNL1        0.0968
     23 C         144.4288  140.4278  162.6567 C.3     1  UNL1        0.0231
     24 C         144.3140  141.8593  163.0897 C.3     1  UNL1        0.0194
     25 C         144.0340  142.9293  162.0763 C.3     1  UNL1        0.0231
     26 C         143.8687  142.5677  160.6300 C.3     1  UNL1        0.0968
     27 O         143.9330  139.3429  158.3177 O.3     1  UNL1       -0.4345
     28 C         142.8881  137.3317  157.0475 C.3     1  UNL1        0.0513
     29 C         142.7249  138.6145  157.8077 C.3     1  UNL1        0.2102
@<TRIPOS>BOND
     1    28    29    1
     2    29    27    1
     3    27    19    1
     4    19    20    2
     5    19    21   am
     6    21    22    1
     7    22    23    1
     8    23    24    1
     9    24    18    1
    10    18     1    1
    11     1     2    1
    12     2     3    1
    13     3     4    1
    14     4     5    1
    15     5     6    1
    16     4     7    1
    17     7     8    1
    18     8     9    2
    19     8    10   am
    20    10    11    1
    21    10    12    1
    22    12    13   ar
    23    13    14   ar
    24    14    15   ar
    25    15    16   ar
    26    16    17   ar
    27    24    25    1
    28    25    26    1
    29    26    21    1
    30     6     1    1
    31    17    12   ar
    32    17     4    1
@<TRIPOS>MOLECULE
*****
 29 32 0 0 0
SMALL
GASTEIGER

@<TRIPOS>ATOM
      1 N         140.1093  139.1156  163.0008 N.3     1  UNL1       -0.2727
      2 C         139.3029  138.4606  161.9189 C.3     1  UNL1        0.0724
      3 C         138.8933  139.2465  160.7087 C.3     1  UNL1        0.0220
      4 C         139.2902  140.6873  160.5804 C.3     1  UNL1        0.0329
      5 C         140.0967  141.3423  161.6623 C.3     1  UNL1        0.0220
      6 C         140.5062  140.5565  162.8725 C.3     1  UNL1        0.0724
      7 C         138.4837  140.0323  159.4984 C.3     1  UNL1        0.0898
      8 C         138.0741  140.8182  158.2882 C.2     1  UNL1        0.2307
      9 O         137.2676  140.1632  157.2062 O.2     1  UNL1       -0.2745
     10 N         138.4710  142.2590  158.1599 N.am    1  UNL1       -0.2423
     11 C         138.0614  143.0449  156.9496 C.3     1  UNL1        0.1215
     12 C         139.2775  142.9140  159.2418 C.ar    1  UNL1        0.1333
     13 N         139.6744  144.3548  159.1134 N.ar    1  UNL1       -0.2291
     14 C         140.4809  145.0098  160.1954 C.ar    1  UNL1        0.1003
     15 C         140.8905  144.2240  161.4056 C.ar    1  UNL1        0.0204
     16 C         140.4936  142.7831  161.5340 C.ar    1  UNL1        0.0001
     17 C         139.6871  142.1282  160.4521 C.ar    1  UNL1        0.0098
     18 C         140.5189  138.3298  164.2111 C.3     1  UNL1        0.0722
     19 C         139.8357  140.6824  169.6881 C.2     1  UNL1        0.4049
     20 O         138.4733  140.7456  170.3127 O.2     1  UNL1       -0.2262
     21 N         140.0065  140.0943  168.3189 N.am    1  UNL1       -0.2460
     22 C         141.3688  140.0311  167.6944 C.3     1  UNL1        0.0968
     23 C         141.5397  139.4429  166.3251 C.3     1  UNL1        0.0231
     24 C         140.3482  138.9179  165.5803 C.3     1  UNL1        0.0194
     25 C         138.9858  138.9811  166.2049 C.3     1  UNL1        0.0231
     26 C         138.8150  139.5693  167.5741 C.3     1  UNL1        0.0968
     27 O         141.0272  141.2074  170.4329 O.3     1  UNL1       -0.4345
     28 C         140.4701  143.6531  169.7559 C.3     1  UNL1        0.0513
     29 C         141.4511  142.6357  170.2584 C.3     1  UNL1        0.2102
@<TRIPOS>BOND
     1    28    29    1
     2    29    27    1
     3    27    19    1
     4    19    20    2
     5    19    21   am
     6    21    22    1
     7    22    23    1
     8    23    24    1
     9    24    18    1
    10    18     1    1
    11     1     2    1
    12     2     3    1
    13     3     4    1
    14     4     5    1
    15     5     6    1
    16     4     7    1
    17     7     8    1
    18     8     9    2
    19     8    10   am
    20    10    11    1
    21    10    12    1
    22    12    13   ar
    23    13    14   ar
    24    14    15   ar
    25    15    16   ar
    26    16    17   ar
    27    24    25    1
    28    25    26    1
    29    26    21    1
    30     6     1    1
    31    17    12   ar
    32    17     4    1
@<TRIPOS>MOLECULE
*****
 29 32 0 0 0
SMALL
GASTEIGER

@<TRIPOS>ATOM
      1 N         140.3683  139.8553  163.2552 N.3     1  UNL1       -0.2727
      2 C         140.5638  139.3802  161.8460 C.3     1  UNL1        0.0724
      3 C         140.5402  140.3630  160.7131 C.3     1  UNL1        0.0220
      4 C         140.3209  141.8210  160.9895 C.3     1  UNL1        0.0329
      5 C         140.1253  142.2960  162.3988 C.3     1  UNL1        0.0220
      6 C         140.1490  141.3132  163.5316 C.3     1  UNL1        0.0724
      7 C         140.5165  141.3459  159.5802 C.3     1  UNL1        0.0898
      8 C         140.4928  142.3287  158.4473 C.2     1  UNL1        0.2307
      9 O         140.6884  141.8537  157.0380 O.2     1  UNL1       -0.2745
     10 N         140.2736  143.7867  158.7237 N.am    1  UNL1       -0.2423
     11 C         140.2499  144.7695  157.5908 C.3     1  UNL1        0.1215
     12 C         140.0780  144.2617  160.1329 C.ar    1  UNL1        0.1333
     13 N         139.8588  145.7197  160.4093 N.ar    1  UNL1       -0.2291
     14 C         139.6632  146.1947  161.8187 C.ar    1  UNL1        0.1003
     15 C         139.6868  145.2119  162.9515 C.ar    1  UNL1        0.0204
     16 C         139.9061  143.7540  162.6751 C.ar    1  UNL1        0.0001
     17 C         140.1017  143.2789  161.2659 C.ar    1  UNL1        0.0098
     18 C         140.3919  138.8724  164.3882 C.3     1  UNL1        0.0722
     19 C         141.2417  140.7929  170.0086 C.2     1  UNL1        0.4049
     20 O         142.6092  140.7347  170.6224 O.2     1  UNL1       -0.2262
     21 N         141.0293  140.3128  168.6035 N.am    1  UNL1       -0.2460
     22 C         139.6618  140.3710  167.9898 C.3     1  UNL1        0.0968
     23 C         139.4494  139.8909  166.5846 C.3     1  UNL1        0.0231
     24 C         140.6043  139.3525  165.7933 C.3     1  UNL1        0.0194
     25 C         141.9718  139.2943  166.4071 C.3     1  UNL1        0.0231
     26 C         142.1842  139.7744  167.8122 C.3     1  UNL1        0.0968
     27 O         140.0867  141.3312  170.7999 O.3     1  UNL1       -0.4345
     28 C         140.5135  143.6976  169.8159 C.3     1  UNL1        0.0513
     29 C         139.7443  142.7900  170.7295 C.3     1  UNL1        0.2102
@<TRIPOS>BOND
     1    28    29    1
     2    29    27    1
     3    27    19    1
     4    19    20    2
     5    19    21   am
     6    21    22    1
     7    22    23    1
     8    23    24    1
     9    24    18    1
    10    18     1    1
    11     1     2    1
    12     2     3    1
    13     3     4    1
    14     4     5    1
    15     5     6    1
    16     4     7    1
    17     7     8    1
    18     8     9    2
    19     8    10   am
    20    10    11    1
    21    10    12    1
    22    12    13   ar
    23    13    14   ar
    24    14    15   ar
    25    15    16   ar
    26    16    17   ar
    27    24    25    1
    28    25    26    1
    29    26    21    1
    30     6     1    1
    31    17    12   ar
    32    17     4    1
@<TRIPOS>MOLECULE
*****
 29 32 0 0 0
SMALL
GASTEIGER

@<TRIPOS>ATOM
      1 N         143.2082  142.0406  163.9207 N.3     1  UNL1       -0.2727
      2 C         143.9272  142.6446  165.0903 C.3     1  UNL1        0.0724
      3 C         143.4051  142.4359  166.4809 C.3     1  UNL1        0.0220
      4 C         142.1639  141.6231  166.7018 C.3     1  UNL1        0.0329
      5 C         141.4449  141.0190  165.5322 C.3     1  UNL1        0.0220
      6 C         141.9670  141.2278  164.1416 C.3     1  UNL1        0.0724
      7 C         142.8830  142.2271  167.8716 C.3     1  UNL1        0.0898
      8 C         142.3608  142.0183  169.2621 C.2     1  UNL1        0.2307
      9 O         143.0798  142.6224  170.4319 O.2     1  UNL1       -0.2745
     10 N         141.1196  141.2055  169.4831 N.am    1  UNL1       -0.2423
     11 C         140.5975  140.9968  170.8737 C.3     1  UNL1        0.1215
     12 C         140.4006  140.6015  168.3134 C.ar    1  UNL1        0.1333
     13 N         139.1594  139.7887  168.5344 N.ar    1  UNL1       -0.2291
     14 C         138.4404  139.1846  167.3647 C.ar    1  UNL1        0.1003
     15 C         138.9625  139.3934  165.9741 C.ar    1  UNL1        0.0204
     16 C         140.2037  140.2062  165.7531 C.ar    1  UNL1        0.0001
     17 C         140.9227  140.8102  166.9228 C.ar    1  UNL1        0.0098
     18 C         143.7303  142.2494  162.5300 C.3     1  UNL1        0.0722
     19 C         142.3425  138.3488  158.1874 C.2     1  UNL1        0.4049
     20 O         141.3019  138.7021  157.1663 O.2     1  UNL1       -0.2262
     21 N         142.6894  139.3239  159.2730 N.am    1  UNL1       -0.2460
     22 C         143.7299  138.9706  160.2940 C.3     1  UNL1        0.0968
     23 C         144.0769  139.9458  161.3798 C.3     1  UNL1        0.0231
     24 C         143.3834  141.2742  161.4444 C.3     1  UNL1        0.0194
     25 C         142.3428  141.6275  160.4233 C.3     1  UNL1        0.0231
     26 C         141.9959  140.6524  159.3377 C.3     1  UNL1        0.0968
     27 O         143.0360  137.0203  158.1228 O.3     1  UNL1       -0.4345
     28 C         143.3752  134.7678  156.8733 C.3     1  UNL1        0.0513
     29 C         143.0128  136.2232  156.8522 C.3     1  UNL1        0.2102
@<TRIPOS>BOND
     1    28    29    1
     2    29    27    1
     3    27    19    1
     4    19    20    2
     5    19    21   am
     6    21    22    1
     7    22    23    1
     8    23    24    1
     9    24    18    1
    10    18     1    1
    11     1     2    1
    12     2     3    1
    13     3     4    1
    14     4     5    1
    15     5     6    1
    16     4     7    1
    17     7     8    1
    18     8     9    2
    19     8    10   am
    20    10    11    1
    21    10    12    1
    22    12    13   ar
    23    13    14   ar
    24    14    15   ar
    25    15    16   ar
    26    16    17   ar
    27    24    25    1
    28    25    26    1
    29    26    21    1
    30     6     1    1
    31    17    12   ar
    32    17     4    1
@<TRIPOS>MOLECULE
*****
 29 32 0 0 0
SMALL
GASTEIGER

@<TRIPOS>ATOM
      1 N         139.3671  142.9479  164.1764 N.3     1  UNL1       -0.2727
      2 C         139.2629  143.7139  165.4619 C.3     1  UNL1        0.0724
      3 C         139.9879  143.2315  166.6832 C.3     1  UNL1        0.0220
      4 C         140.8171  141.9832  166.6190 C.3     1  UNL1        0.0329
      5 C         140.9214  141.2173  165.3336 C.3     1  UNL1        0.0220
      6 C         140.1964  141.6996  164.1123 C.3     1  UNL1        0.0724
      7 C         140.7129  142.7491  167.9046 C.3     1  UNL1        0.0898
      8 C         141.4380  142.2667  169.1259 C.2     1  UNL1        0.2307
      9 O         141.3338  143.0327  170.4114 O.2     1  UNL1       -0.2745
     10 N         142.2672  141.0185  169.0617 N.am    1  UNL1       -0.2423
     11 C         142.9923  140.5361  170.2831 C.3     1  UNL1        0.1215
     12 C         142.3714  140.2525  167.7763 C.ar    1  UNL1        0.1333
     13 N         143.2007  139.0042  167.7121 N.ar    1  UNL1       -0.2291
     14 C         143.3049  138.2383  166.4265 C.ar    1  UNL1        0.1003
     15 C         142.5799  138.7207  165.2052 C.ar    1  UNL1        0.0204
     16 C         141.7506  139.9690  165.2694 C.ar    1  UNL1        0.0001
     17 C         141.6464  140.7349  166.5549 C.ar    1  UNL1        0.0098
     18 C         138.6421  143.4303  162.9550 C.3     1  UNL1        0.0722
     19 C         141.7194  144.8451  158.0025 C.2     1  UNL1        0.4049
     20 O         142.4090  146.1734  157.9018 O.2     1  UNL1       -0.2262
     21 N         140.9501  144.4914  159.2406 N.am    1  UNL1       -0.2460
     22 C         140.2606  143.1631  159.3413 C.3     1  UNL1        0.0968
     23 C         139.4912  142.8094  160.5795 C.3     1  UNL1        0.0231
     24 C         139.4114  143.7840  161.7169 C.3     1  UNL1        0.0194
     25 C         140.1010  145.1123  161.6162 C.3     1  UNL1        0.0231
     26 C         140.8703  145.4660  160.3781 C.3     1  UNL1        0.0968
     27 O         141.7992  143.8705  156.8651 O.3     1  UNL1       -0.4345
     28 C         143.9477  142.7279  157.7754 C.3     1  UNL1        0.0513
     29 C         143.0652  143.1034  156.6221 C.3     1  UNL1        0.2102
@<TRIPOS>BOND
     1    28    29    1
     2    29    27    1
     3    27    19    1
     4    19    20    2
     5    19    21   am
     6    21    22    1
     7    22    23    1
     8    23    24    1
     9    24    18    1
    10    18     1    1
    11     1     2    1
    12     2     3    1
    13     3     4    1
    14     4     5    1
    15     5     6    1
    16     4     7    1
    17     7     8    1
    18     8     9    2
    19     8    10   am
    20    10    11    1
    21    10    12    1
    22    12    13   ar
    23    13    14   ar
    24    14    15   ar
    25    15    16   ar
    26    16    17   ar
    27    24    25    1
    28    25    26    1
    29    26    21    1
    30     6     1    1
    31    17    12   ar
    32    17     4    1
@<TRIPOS>MOLECULE
*****
 29 32 0 0 0
SMALL
GASTEIGER

@<TRIPOS>ATOM
      1 N         140.9464  143.4496  163.5255 N.3     1  UNL1       -0.2727
      2 C         140.1932  143.8922  164.7448 C.3     1  UNL1        0.0724
      3 C         140.3323  143.1309  166.0297 C.3     1  UNL1        0.0220
      4 C         141.2245  141.9269  166.0953 C.3     1  UNL1        0.0329
      5 C         141.9777  141.4843  164.8760 C.3     1  UNL1        0.0220
      6 C         141.8386  142.2456  163.5911 C.3     1  UNL1        0.0724
      7 C         140.4713  142.3696  167.3146 C.3     1  UNL1        0.0898
      8 C         140.6104  141.6082  168.5995 C.2     1  UNL1        0.2307
      9 O         139.8572  142.0509  169.8189 O.2     1  UNL1       -0.2745
     10 N         141.5027  140.4042  168.6651 N.am    1  UNL1       -0.2423
     11 C         141.6417  139.6429  169.9501 C.3     1  UNL1        0.1215
     12 C         142.2558  139.9616  167.4458 C.ar    1  UNL1        0.1333
     13 N         143.1481  138.7576  167.5114 N.ar    1  UNL1       -0.2291
     14 C         143.9013  138.3150  166.2920 C.ar    1  UNL1        0.1003
     15 C         143.7622  139.0763  165.0072 C.ar    1  UNL1        0.0204
     16 C         142.8700  140.2803  164.9416 C.ar    1  UNL1        0.0001
     17 C         142.1168  140.7229  166.1609 C.ar    1  UNL1        0.0098
     18 C         140.8073  144.2109  162.2405 C.3     1  UNL1        0.0722
     19 C         137.8897  141.7635  157.6040 C.2     1  UNL1        0.4049
     20 O         137.0277  140.5540  157.8143 O.2     1  UNL1       -0.2262
     21 N         138.6191  142.3754  158.7631 N.am    1  UNL1       -0.2460
     22 C         139.4810  143.5848  158.5528 C.3     1  UNL1        0.0968
     23 C         140.2105  144.1967  159.7120 C.3     1  UNL1        0.0231
     24 C         140.0779  143.5991  161.0814 C.3     1  UNL1        0.0194
     25 C         139.2159  142.3896  161.2917 C.3     1  UNL1        0.0231
     26 C         138.4865  141.7778  160.1326 C.3     1  UNL1        0.0968
     27 O         138.0222  142.3611  156.2346 O.3     1  UNL1       -0.4345
     28 C         137.4144  144.6281  155.1203 C.3     1  UNL1        0.0513
     29 C         136.9894  143.3274  155.7348 C.3     1  UNL1        0.2102
@<TRIPOS>BOND
     1    28    29    1
     2    29    27    1
     3    27    19    1
     4    19    20    2
     5    19    21   am
     6    21    22    1
     7    22    23    1
     8    23    24    1
     9    24    18    1
    10    18     1    1
    11     1     2    1
    12     2     3    1
    13     3     4    1
    14     4     5    1
    15     5     6    1
    16     4     7    1
    17     7     8    1
    18     8     9    2
    19     8    10   am
    20    10    11    1
    21    10    12    1
    22    12    13   ar
    23    13    14   ar
    24    14    15   ar
    25    15    16   ar
    26    16    17   ar
    27    24    25    1
    28    25    26    1
    29    26    21    1
    30     6     1    1
    31    17    12   ar
    32    17     4    1
