@<TRIPOS>MOLECULE
*****
 34 38 0 0 0
SMALL
GASTEIGER

@<TRIPOS>ATOM
      1 C         140.6900  138.4769  164.9734 C.3     1  UNL1        0.0704
      2 C         141.5853  138.1281  163.8215 C.3     1  UNL1        0.0087
      3 C         140.7651  137.3939  162.8026 C.3     1  UNL1        0.0005
      4 C         139.3628  137.2888  163.3248 C.3     1  UNL1        0.0005
      5 C         139.3164  137.9581  164.6664 C.3     1  UNL1        0.0095
      6 C         138.4211  138.3068  165.8183 C.3     1  UNL1        0.0162
      7 C         139.2414  139.0410  166.8371 C.3     1  UNL1        0.0544
      8 C         140.6436  139.1461  166.3150 C.3     1  UNL1        0.0243
      9 O         143.0639  138.1112  165.9638 O.2     1  UNL1       -0.2749
     10 C         142.0635  138.9956  165.2803 C.2     1  UNL1        0.2250
     11 N         142.4368  140.3988  164.9038 N.am    1  UNL1       -0.2750
     12 C         143.8104  140.9175  165.2107 C.3     1  UNL1        0.1000
     13 C         144.1836  142.3207  164.8342 C.3     1  UNL1        0.0670
     14 C         143.1832  143.2051  164.1507 C.ar    1  UNL1        0.0583
     15 N         143.5565  144.6083  163.7741 N.ar    1  UNL1       -0.2484
     16 C         142.5562  145.4927  163.0906 C.ar    1  UNL1        0.1023
     17 C         141.1826  144.9739  162.7837 C.ar    1  UNL1        0.0902
     18 C         140.8094  143.5708  163.1602 C.ar    1  UNL1        0.0040
     19 C         141.8097  142.6864  163.8437 C.ar    1  UNL1        0.0113
     20 C         141.4365  141.2832  164.2203 C.3     1  UNL1        0.1213
     21 C         140.1823  145.8583  162.1002 C.3     1  UNL1        0.4200
     22 F         139.1819  146.7428  161.4167 F       1  UNL1       -0.1658
     23 F         139.3059  145.8071  163.3165 F       1  UNL1       -0.1658
     24 F         141.0587  145.9096  160.8839 F       1  UNL1       -0.1658
     25 N         138.7462  139.5762  168.1481 N.3     1  UNL1       -0.2995
     26 H         138.5366  138.7690  168.7354 H       1  UNL1        0.1232
     27 C         139.6147  140.4895  168.9614 C.3     1  UNL1        0.0575
     28 C         139.9986  140.1099  170.3609 C.3     1  UNL1        0.0411
     29 C         140.8671  141.0233  171.1743 C.3     1  UNL1        0.1522
     30 S         141.3517  142.3162  170.5882 S.O2    1  UNL1       -0.0099
     31 O         142.0544  143.6365  170.4744 O.2     1  UNL1       -0.1730
     32 O         141.9796  142.3951  171.9482 O.2     1  UNL1       -0.1730
     33 C         140.9678  142.6958  169.1887 C.3     1  UNL1        0.1522
     34 C         140.0993  141.7825  168.3753 C.3     1  UNL1        0.0411
@<TRIPOS>BOND
     1     9    10    2
     2    10    11   am
     3    11    12    1
     4    12    13    1
     5    13    14    1
     6    14    15   ar
     7    15    16   ar
     8    16    17   ar
     9    17    21    1
    10    21    22    1
    11    21    23    1
    12    21    24    1
    13    17    18   ar
    14    18    19   ar
    15    19    20    1
    16     1    10    1
    17     1     2    1
    18     2     3    1
    19     3     4    1
    20     5     4    1
    21     5     6    1
    22     6     7    1
    23     7    25    1
    24    25    27    1
    25    27    28    1
    26    28    29    1
    27    29    30    1
    28    30    31    2
    29    30    32    2
    30    30    33    1
    31    33    34    1
    32     7     8    1
    33    20    11    1
    34     5     1    1
    35    34    27    1
    36    19    14   ar
    37     8     1    1
    38    25    26    1
@<TRIPOS>MOLECULE
*****
 34 38 0 0 0
SMALL
GASTEIGER

@<TRIPOS>ATOM
      1 C         141.5860  139.6802  167.7956 C.3     1  UNL1        0.0704
      2 C         142.8425  139.7732  168.6095 C.3     1  UNL1        0.0087
      3 C         142.4599  140.1422  170.0122 C.3     1  UNL1        0.0005
      4 C         140.9670  140.2773  170.0652 C.3     1  UNL1        0.0005
      5 C         140.4268  139.9917  168.6952 C.3     1  UNL1        0.0095
      6 C         139.1703  139.8986  167.8813 C.3     1  UNL1        0.0162
      7 C         139.5529  139.5296  166.4786 C.3     1  UNL1        0.0544
      8 C         141.0459  139.3946  166.4257 C.3     1  UNL1        0.0243
      9 O         143.6395  138.2038  167.2012 O.2     1  UNL1       -0.2749
     10 C         142.7452  139.3686  166.8960 C.2     1  UNL1        0.2250
     11 N         143.0100  140.2220  165.6911 N.am    1  UNL1       -0.2750
     12 C         144.1692  139.9105  164.7916 C.3     1  UNL1        0.1000
     13 C         144.4340  140.7639  163.5868 C.3     1  UNL1        0.0670
     14 C         143.5396  141.9288  163.2815 C.ar    1  UNL1        0.0583
     15 N         143.8044  142.7822  162.0767 N.ar    1  UNL1       -0.2484
     16 C         142.9101  143.9471  161.7715 C.ar    1  UNL1        0.1023
     17 C         141.7509  144.2586  162.6711 C.ar    1  UNL1        0.0902
     18 C         141.4861  143.4052  163.8759 C.ar    1  UNL1        0.0040
     19 C         142.3805  142.2403  164.1811 C.ar    1  UNL1        0.0113
     20 C         142.1157  141.3869  165.3859 C.3     1  UNL1        0.1213
     21 C         140.8565  145.4235  162.3659 C.3     1  UNL1        0.4200
     22 F         139.9622  146.5884  162.0607 F       1  UNL1       -0.1658
     23 F         141.3211  145.4065  160.9398 F       1  UNL1       -0.1658
     24 F         140.3919  145.4404  163.7920 F       1  UNL1       -0.1658
     25 N         138.6083  139.3305  165.3305 N.3     1  UNL1       -0.2995
     26 H         137.7041  139.0832  165.7325 H       1  UNL1        0.1232
     27 C         138.3601  140.4480  164.3611 C.3     1  UNL1        0.0575
     28 C         138.2464  140.1568  162.8941 C.3     1  UNL1        0.0411
     29 C         137.9981  141.2742  161.9246 C.3     1  UNL1        0.1522
     30 S         137.8636  142.6828  162.4223 S.O2    1  UNL1       -0.0099
     31 O         137.6656  144.1696  162.4089 O.2     1  UNL1       -0.1730
     32 O         137.6811  142.9080  160.9506 O.2     1  UNL1       -0.1730
     33 C         137.9773  142.9740  163.8894 C.3     1  UNL1        0.1522
     34 C         138.2255  141.8566  164.8588 C.3     1  UNL1        0.0411
@<TRIPOS>BOND
     1     9    10    2
     2    10    11   am
     3    11    12    1
     4    12    13    1
     5    13    14    1
     6    14    15   ar
     7    15    16   ar
     8    16    17   ar
     9    17    21    1
    10    21    22    1
    11    21    23    1
    12    21    24    1
    13    17    18   ar
    14    18    19   ar
    15    19    20    1
    16     1    10    1
    17     1     2    1
    18     2     3    1
    19     3     4    1
    20     5     4    1
    21     5     6    1
    22     6     7    1
    23     7    25    1
    24    25    27    1
    25    27    28    1
    26    28    29    1
    27    29    30    1
    28    30    31    2
    29    30    32    2
    30    30    33    1
    31    33    34    1
    32     7     8    1
    33    20    11    1
    34     5     1    1
    35    34    27    1
    36    19    14   ar
    37     8     1    1
    38    25    26    1
@<TRIPOS>MOLECULE
*****
 34 38 0 0 0
SMALL
GASTEIGER

@<TRIPOS>ATOM
      1 C         141.5938  140.5098  168.5317 C.3     1  UNL1        0.0704
      2 C         142.9517  140.9772  168.9645 C.3     1  UNL1        0.0087
      3 C         142.7841  141.8023  170.2059 C.3     1  UNL1        0.0005
      4 C         141.3225  141.8449  170.5403 C.3     1  UNL1        0.0005
      5 C         140.5868  141.0461  169.5056 C.3     1  UNL1        0.0095
      6 C         139.2288  140.5787  169.0728 C.3     1  UNL1        0.0162
      7 C         139.3965  139.7535  167.8313 C.3     1  UNL1        0.0544
      8 C         140.8581  139.7110  167.4969 C.3     1  UNL1        0.0243
      9 O         143.4400  138.7857  167.9245 O.2     1  UNL1       -0.2749
     10 C         142.6007  139.9736  167.5578 C.2     1  UNL1        0.2250
     11 N         142.7684  140.6253  166.2171 N.am    1  UNL1       -0.2750
     12 C         143.7753  140.0890  165.2433 C.3     1  UNL1        0.1000
     13 C         143.9430  140.7407  163.9027 C.3     1  UNL1        0.0670
     14 C         143.1037  141.9286  163.5360 C.ar    1  UNL1        0.0583
     15 N         143.2714  142.5803  162.1954 N.ar    1  UNL1       -0.2484
     16 C         142.4321  143.7682  161.8287 C.ar    1  UNL1        0.1023
     17 C         141.4251  144.3044  162.8026 C.ar    1  UNL1        0.0902
     18 C         141.2574  143.6528  164.1432 C.ar    1  UNL1        0.0040
     19 C         142.0967  142.4649  164.5099 C.ar    1  UNL1        0.0113
     20 C         141.9291  141.8132  165.8505 C.3     1  UNL1        0.1213
     21 C         140.5858  145.4924  162.4360 C.3     1  UNL1        0.4200
     22 F         139.7465  146.6803  162.0693 F       1  UNL1       -0.1658
     23 F         141.2175  145.5188  161.0757 F       1  UNL1       -0.1658
     24 F         139.9541  145.4659  163.7962 F       1  UNL1       -0.1658
     25 N         138.2957  139.0879  167.0598 N.3     1  UNL1       -0.2995
     26 H         137.4331  139.5794  167.2938 H       1  UNL1        0.1232
     27 C         138.3634  139.0208  165.5629 C.3     1  UNL1        0.0575
     28 C         138.7771  137.7472  164.8871 C.3     1  UNL1        0.0411
     29 C         138.8448  137.6801  163.3901 C.3     1  UNL1        0.1522
     30 S         138.4989  138.8867  162.5689 S.O2    1  UNL1       -0.0099
     31 O         138.2688  139.7558  161.3682 O.2     1  UNL1       -0.1730
     32 O         138.8327  137.9149  161.4762 O.2     1  UNL1       -0.1730
     33 C         138.0851  140.1604  163.2447 C.3     1  UNL1        0.1522
     34 C         138.0174  140.2274  164.7417 C.3     1  UNL1        0.0411
@<TRIPOS>BOND
     1     9    10    2
     2    10    11   am
     3    11    12    1
     4    12    13    1
     5    13    14    1
     6    14    15   ar
     7    15    16   ar
     8    16    17   ar
     9    17    21    1
    10    21    22    1
    11    21    23    1
    12    21    24    1
    13    17    18   ar
    14    18    19   ar
    15    19    20    1
    16     1    10    1
    17     1     2    1
    18     2     3    1
    19     3     4    1
    20     5     4    1
    21     5     6    1
    22     6     7    1
    23     7    25    1
    24    25    27    1
    25    27    28    1
    26    28    29    1
    27    29    30    1
    28    30    31    2
    29    30    32    2
    30    30    33    1
    31    33    34    1
    32     7     8    1
    33    20    11    1
    34     5     1    1
    35    34    27    1
    36    19    14   ar
    37     8     1    1
    38    25    26    1
@<TRIPOS>MOLECULE
*****
 34 38 0 0 0
SMALL
GASTEIGER

@<TRIPOS>ATOM
      1 C         140.6736  139.8879  167.6271 C.3     1  UNL1        0.0704
      2 C         141.5890  140.5559  168.6099 C.3     1  UNL1        0.0087
      3 C         140.7671  140.9915  169.7867 C.3     1  UNL1        0.0005
      4 C         139.3439  140.5927  169.5312 C.3     1  UNL1        0.0005
      5 C         139.2861  139.9107  168.1965 C.3     1  UNL1        0.0095
      6 C         138.3707  139.2427  167.2137 C.3     1  UNL1        0.0162
      7 C         139.1925  138.8072  166.0369 C.3     1  UNL1        0.0544
      8 C         140.6158  139.2059  166.2924 C.3     1  UNL1        0.0243
      9 O         143.0751  138.8971  167.5914 O.2     1  UNL1       -0.2749
     10 C         142.0612  139.8652  167.0577 C.2     1  UNL1        0.2250
     11 N         142.4348  140.8106  165.9547 N.am    1  UNL1       -0.2750
     12 C         143.8224  140.7878  165.3853 C.3     1  UNL1        0.1000
     13 C         144.1960  141.7332  164.2823 C.3     1  UNL1        0.0670
     14 C         143.1821  142.7013  163.7487 C.ar    1  UNL1        0.0583
     15 N         143.5558  143.6467  162.6456 N.ar    1  UNL1       -0.2484
     16 C         142.5418  144.6148  162.1120 C.ar    1  UNL1        0.1023
     17 C         141.1543  144.6375  162.6814 C.ar    1  UNL1        0.0902
     18 C         140.7806  143.6922  163.7844 C.ar    1  UNL1        0.0040
     19 C         141.7945  142.7240  164.3180 C.ar    1  UNL1        0.0113
     20 C         141.4209  141.7787  165.4210 C.3     1  UNL1        0.1213
     21 C         140.1404  145.6056  162.1477 C.3     1  UNL1        0.4200
     22 F         139.1265  146.5737  161.6141 F       1  UNL1       -0.1658
     23 F         139.3510  145.4785  163.4169 F       1  UNL1       -0.1658
     24 F         140.9297  145.7328  160.8786 F       1  UNL1       -0.1658
     25 N         138.6809  138.0974  164.8184 N.3     1  UNL1       -0.2995
     26 H         137.7502  137.7497  165.0493 H       1  UNL1        0.1232
     27 C         138.5575  138.8342  163.5177 C.3     1  UNL1        0.0575
     28 C         138.3131  140.3141  163.5143 C.3     1  UNL1        0.0411
     29 C         138.1897  141.0509  162.2136 C.3     1  UNL1        0.1522
     30 S         138.3108  140.3078  160.9162 S.O2    1  UNL1       -0.0099
     31 O         138.3519  140.0472  159.4397 O.2     1  UNL1       -0.1730
     32 O         138.0807  141.6972  160.4000 O.2     1  UNL1       -0.1730
     33 C         138.5552  138.8278  160.9197 C.3     1  UNL1        0.1522
     34 C         138.6785  138.0910  162.2204 C.3     1  UNL1        0.0411
@<TRIPOS>BOND
     1     9    10    2
     2    10    11   am
     3    11    12    1
     4    12    13    1
     5    13    14    1
     6    14    15   ar
     7    15    16   ar
     8    16    17   ar
     9    17    21    1
    10    21    22    1
    11    21    23    1
    12    21    24    1
    13    17    18   ar
    14    18    19   ar
    15    19    20    1
    16     1    10    1
    17     1     2    1
    18     2     3    1
    19     3     4    1
    20     5     4    1
    21     5     6    1
    22     6     7    1
    23     7    25    1
    24    25    27    1
    25    27    28    1
    26    28    29    1
    27    29    30    1
    28    30    31    2
    29    30    32    2
    30    30    33    1
    31    33    34    1
    32     7     8    1
    33    20    11    1
    34     5     1    1
    35    34    27    1
    36    19    14   ar
    37     8     1    1
    38    25    26    1
@<TRIPOS>MOLECULE
*****
 34 38 0 0 0
SMALL
GASTEIGER

@<TRIPOS>ATOM
      1 C         140.3803  138.9782  166.0274 C.3     1  UNL1        0.0704
      2 C         140.2216  139.8062  167.2680 C.3     1  UNL1        0.0087
      3 C         138.7856  139.7311  167.6950 C.3     1  UNL1        0.0005
      4 C         138.0567  138.8568  166.7182 C.3     1  UNL1        0.0005
      5 C         139.0422  138.3914  165.6875 C.3     1  UNL1        0.0095
      6 C         139.2009  137.5634  164.4469 C.3     1  UNL1        0.0162
      7 C         140.6369  137.6385  164.0199 C.3     1  UNL1        0.0544
      8 C         141.3658  138.5128  164.9968 C.3     1  UNL1        0.0243
      9 O         142.6479  138.8299  167.2867 O.2     1  UNL1       -0.2749
     10 C         141.7182  139.5649  166.3673 C.2     1  UNL1        0.2250
     11 N         142.1266  140.8868  165.7876 N.am    1  UNL1       -0.2750
     12 C         143.4646  141.4736  166.1275 C.3     1  UNL1        0.1000
     13 C         143.8729  142.7954  165.5479 C.3     1  UNL1        0.0670
     14 C         142.9433  143.5305  164.6284 C.ar    1  UNL1        0.0583
     15 N         143.3517  144.8523  164.0487 N.ar    1  UNL1       -0.2484
     16 C         142.4221  145.5874  163.1292 C.ar    1  UNL1        0.1023
     17 C         141.0840  145.0006  162.7894 C.ar    1  UNL1        0.0902
     18 C         140.6757  143.6788  163.3690 C.ar    1  UNL1        0.0040
     19 C         141.6053  142.9437  164.2885 C.ar    1  UNL1        0.0113
     20 C         141.1970  141.6219  164.8681 C.3     1  UNL1        0.1213
     21 C         140.1544  145.7357  161.8699 C.3     1  UNL1        0.4200
     22 F         139.2248  146.4707  160.9504 F       1  UNL1       -0.1658
     23 F         139.1292  145.8060  162.9626 F       1  UNL1       -0.1658
     24 F         141.1796  145.6653  160.7772 F       1  UNL1       -0.1658
     25 N         141.2384  136.9585  162.8258 N.3     1  UNL1       -0.2995
     26 H         140.5122  136.3614  162.4301 H       1  UNL1        0.1232
     27 C         141.7898  137.7763  161.6958 C.3     1  UNL1        0.0575
     28 C         143.2707  137.9782  161.5691 C.3     1  UNL1        0.0411
     29 C         143.8223  138.7960  160.4390 C.3     1  UNL1        0.1522
     30 S         142.8928  139.4119  159.4356 S.O2    1  UNL1       -0.0099
     31 O         142.4208  140.1920  158.2446 O.2     1  UNL1       -0.1730
     32 O         144.2099  139.8847  158.8954 O.2     1  UNL1       -0.1730
     33 C         141.4119  139.2099  159.5623 C.3     1  UNL1        0.1522
     34 C         140.8604  138.3922  160.6924 C.3     1  UNL1        0.0411
@<TRIPOS>BOND
     1     9    10    2
     2    10    11   am
     3    11    12    1
     4    12    13    1
     5    13    14    1
     6    14    15   ar
     7    15    16   ar
     8    16    17   ar
     9    17    21    1
    10    21    22    1
    11    21    23    1
    12    21    24    1
    13    17    18   ar
    14    18    19   ar
    15    19    20    1
    16     1    10    1
    17     1     2    1
    18     2     3    1
    19     3     4    1
    20     5     4    1
    21     5     6    1
    22     6     7    1
    23     7    25    1
    24    25    27    1
    25    27    28    1
    26    28    29    1
    27    29    30    1
    28    30    31    2
    29    30    32    2
    30    30    33    1
    31    33    34    1
    32     7     8    1
    33    20    11    1
    34     5     1    1
    35    34    27    1
    36    19    14   ar
    37     8     1    1
    38    25    26    1
@<TRIPOS>MOLECULE
*****
 34 38 0 0 0
SMALL
GASTEIGER

@<TRIPOS>ATOM
      1 C         139.9782  139.1198  164.5632 C.3     1  UNL1        0.0704
      2 C         138.7414  138.9887  163.7247 C.3     1  UNL1        0.0087
      3 C         138.9309  137.8247  162.7979 C.3     1  UNL1        0.0005
      4 C         140.2849  137.2363  163.0635 C.3     1  UNL1        0.0005
      5 C         140.9321  138.0367  164.1546 C.3     1  UNL1        0.0095
      6 C         142.1689  138.1678  164.9931 C.3     1  UNL1        0.0162
      7 C         141.9794  139.3319  165.9199 C.3     1  UNL1        0.0544
      8 C         140.6254  139.9203  165.6543 C.3     1  UNL1        0.0243
      9 O         138.0944  139.9862  166.1288 O.2     1  UNL1       -0.2749
     10 C         139.0242  140.2029  164.9718 C.2     1  UNL1        0.2250
     11 N         139.0000  141.5027  164.2234 N.am    1  UNL1       -0.2750
     12 C         138.0461  142.5857  164.6320 C.3     1  UNL1        0.1000
     13 C         138.0219  143.8854  163.8837 C.3     1  UNL1        0.0670
     14 C         138.9517  144.1021  162.7267 C.ar    1  UNL1        0.0583
     15 N         138.9275  145.4019  161.9783 N.ar    1  UNL1       -0.2484
     16 C         139.8573  145.6186  160.8214 C.ar    1  UNL1        0.1023
     17 C         140.8113  144.5355  160.4128 C.ar    1  UNL1        0.0902
     18 C         140.8354  143.2358  161.1612 C.ar    1  UNL1        0.0040
     19 C         139.9057  143.0191  162.3181 C.ar    1  UNL1        0.0113
     20 C         139.9298  141.7194  163.0665 C.3     1  UNL1        0.1213
     21 C         141.7411  144.7522  159.2559 C.3     1  UNL1        0.4200
     22 F         142.6709  144.9689  158.0989 F       1  UNL1       -0.1658
     23 F         142.7574  143.8606  159.9056 F       1  UNL1       -0.1658
     24 F         140.7248  145.6438  158.6061 F       1  UNL1       -0.1658
     25 N         142.9700  139.8216  166.9344 N.3     1  UNL1       -0.2995
     26 H         143.4778  140.5930  166.5015 H       1  UNL1        0.1232
     27 C         142.4954  140.3113  168.2704 C.3     1  UNL1        0.0575
     28 C         141.5246  139.4918  169.0679 C.3     1  UNL1        0.0411
     29 C         141.0500  139.9815  170.4040 C.3     1  UNL1        0.1522
     30 S         141.5462  141.2905  170.9425 S.O2    1  UNL1       -0.0099
     31 O         141.7272  142.4555  171.8699 O.2     1  UNL1       -0.1730
     32 O         140.6382  140.8757  172.0621 O.2     1  UNL1       -0.1730
     33 C         142.5171  142.1099  170.1450 C.3     1  UNL1        0.1522
     34 C         142.9917  141.6203  168.8090 C.3     1  UNL1        0.0411
@<TRIPOS>BOND
     1     9    10    2
     2    10    11   am
     3    11    12    1
     4    12    13    1
     5    13    14    1
     6    14    15   ar
     7    15    16   ar
     8    16    17   ar
     9    17    21    1
    10    21    22    1
    11    21    23    1
    12    21    24    1
    13    17    18   ar
    14    18    19   ar
    15    19    20    1
    16     1    10    1
    17     1     2    1
    18     2     3    1
    19     3     4    1
    20     5     4    1
    21     5     6    1
    22     6     7    1
    23     7    25    1
    24    25    27    1
    25    27    28    1
    26    28    29    1
    27    29    30    1
    28    30    31    2
    29    30    32    2
    30    30    33    1
    31    33    34    1
    32     7     8    1
    33    20    11    1
    34     5     1    1
    35    34    27    1
    36    19    14   ar
    37     8     1    1
    38    25    26    1
@<TRIPOS>MOLECULE
*****
 34 38 0 0 0
SMALL
GASTEIGER

@<TRIPOS>ATOM
      1 C         142.7583  138.5536  164.3887 C.3     1  UNL1        0.0704
      2 C         142.4257  138.4389  162.9306 C.3     1  UNL1        0.0087
      3 C         143.6697  138.7355  162.1466 C.3     1  UNL1        0.0005
      4 C         144.7711  139.0335  163.1203 C.3     1  UNL1        0.0005
      5 C         144.2079  138.9211  164.5060 C.3     1  UNL1        0.0095
      6 C         144.5404  139.0358  165.9641 C.3     1  UNL1        0.0162
      7 C         143.2964  138.7392  166.7480 C.3     1  UNL1        0.0544
      8 C         142.1950  138.4412  165.7744 C.3     1  UNL1        0.0243
      9 O         140.8699  136.7745  164.5258 O.2     1  UNL1       -0.2749
     10 C         141.3088  138.1861  164.2714 C.2     1  UNL1        0.2250
     11 N         140.2980  139.2303  163.8997 N.am    1  UNL1       -0.2750
     12 C         138.8485  138.8628  163.7824 C.3     1  UNL1        0.1000
     13 C         137.8378  139.9069  163.4107 C.3     1  UNL1        0.0670
     14 C         138.2766  141.3186  163.1563 C.ar    1  UNL1        0.0583
     15 N         137.2658  142.3627  162.7846 N.ar    1  UNL1       -0.2484
     16 C         137.7046  143.7744  162.5303 C.ar    1  UNL1        0.1023
     17 C         139.1542  144.1418  162.6476 C.ar    1  UNL1        0.0902
     18 C         140.1649  143.0977  163.0193 C.ar    1  UNL1        0.0040
     19 C         139.7261  141.6861  163.2736 C.ar    1  UNL1        0.0113
     20 C         140.7368  140.6419  163.6453 C.3     1  UNL1        0.1213
     21 C         139.5930  145.5535  162.3932 C.3     1  UNL1        0.4200
     22 F         140.0318  146.9651  162.1388 F       1  UNL1       -0.1658
     23 F         141.0174  145.1559  162.6443 F       1  UNL1       -0.1658
     24 F         138.1686  145.9510  162.1422 F       1  UNL1       -0.1658
     25 N         143.1752  138.7404  168.2432 N.3     1  UNL1       -0.2995
     26 H         144.1219  138.6655  168.6154 H       1  UNL1        0.1232
     27 C         142.5254  139.8977  168.9420 C.3     1  UNL1        0.0575
     28 C         142.8103  141.3004  168.4936 C.3     1  UNL1        0.0411
     29 C         142.1605  142.4578  169.1924 C.3     1  UNL1        0.1522
     30 S         141.2259  142.2123  170.3397 S.O2    1  UNL1       -0.0099
     31 O         140.2756  142.4872  171.4672 O.2     1  UNL1       -0.1730
     32 O         141.1807  143.7106  170.2829 O.2     1  UNL1       -0.1730
     33 C         140.9410  140.8095  170.7881 C.3     1  UNL1        0.1522
     34 C         141.5908  139.6522  170.0893 C.3     1  UNL1        0.0411
@<TRIPOS>BOND
     1     9    10    2
     2    10    11   am
     3    11    12    1
     4    12    13    1
     5    13    14    1
     6    14    15   ar
     7    15    16   ar
     8    16    17   ar
     9    17    21    1
    10    21    22    1
    11    21    23    1
    12    21    24    1
    13    17    18   ar
    14    18    19   ar
    15    19    20    1
    16     1    10    1
    17     1     2    1
    18     2     3    1
    19     3     4    1
    20     5     4    1
    21     5     6    1
    22     6     7    1
    23     7    25    1
    24    25    27    1
    25    27    28    1
    26    28    29    1
    27    29    30    1
    28    30    31    2
    29    30    32    2
    30    30    33    1
    31    33    34    1
    32     7     8    1
    33    20    11    1
    34     5     1    1
    35    34    27    1
    36    19    14   ar
    37     8     1    1
    38    25    26    1
@<TRIPOS>MOLECULE
*****
 34 38 0 0 0
SMALL
GASTEIGER

@<TRIPOS>ATOM
      1 C         139.1287  142.4835  163.1269 C.3     1  UNL1        0.0704
      2 C         137.7331  142.8745  163.5133 C.3     1  UNL1        0.0087
      3 C         137.5314  144.3109  163.1310 C.3     1  UNL1        0.0005
      4 C         138.8024  144.8076  162.5082 C.3     1  UNL1        0.0005
      5 C         139.7895  143.6783  162.5056 C.3     1  UNL1        0.0095
      6 C         141.1851  143.2872  162.1191 C.3     1  UNL1        0.0162
      7 C         141.3868  141.8509  162.5015 C.3     1  UNL1        0.0544
      8 C         140.1158  141.3541  163.1243 C.3     1  UNL1        0.0243
      9 O         137.4805  140.4823  162.9576 O.2     1  UNL1       -0.2749
     10 C         138.4678  141.2888  163.7481 C.2     1  UNL1        0.2250
     11 N         138.7942  140.9006  165.1598 N.am    1  UNL1       -0.2750
     12 C         138.1333  139.7059  165.7810 C.3     1  UNL1        0.1000
     13 C         138.4598  139.3178  167.1926 C.3     1  UNL1        0.0670
     14 C         139.4471  140.1243  167.9830 C.ar    1  UNL1        0.0583
     15 N         139.7735  139.7360  169.3947 N.ar    1  UNL1       -0.2484
     16 C         140.7608  140.5426  170.1851 C.ar    1  UNL1        0.1023
     17 C         141.4217  141.7373  169.5638 C.ar    1  UNL1        0.0902
     18 C         141.0953  142.1255  168.1522 C.ar    1  UNL1        0.0040
     19 C         140.1080  141.3189  167.3618 C.ar    1  UNL1        0.0113
     20 C         139.7815  141.7071  165.9502 C.3     1  UNL1        0.1213
     21 C         142.4090  142.5438  170.3542 C.3     1  UNL1        0.4200
     22 F         143.3963  143.3503  171.1447 F       1  UNL1       -0.1658
     23 F         143.1625  142.8553  169.0952 F       1  UNL1       -0.1658
     24 F         141.6555  142.2323  171.6133 F       1  UNL1       -0.1658
     25 N         142.6396  141.0516  162.2970 N.3     1  UNL1       -0.2995
     26 H         143.3658  141.7096  162.0143 H       1  UNL1        0.1232
     27 C         143.2049  140.2413  163.4256 C.3     1  UNL1        0.0575
     28 C         144.6734  139.9386  163.4694 C.3     1  UNL1        0.0411
     29 C         145.2388  139.1282  164.5981 C.3     1  UNL1        0.1522
     30 S         144.3356  138.6206  165.6828 S.O2    1  UNL1       -0.0099
     31 O         143.8886  137.9239  166.9336 O.2     1  UNL1       -0.1730
     32 O         145.6488  138.0760  166.1611 O.2     1  UNL1       -0.1730
     33 C         142.8671  138.9234  165.6389 C.3     1  UNL1        0.1522
     34 C         142.3018  139.7336  164.5103 C.3     1  UNL1        0.0411
@<TRIPOS>BOND
     1     9    10    2
     2    10    11   am
     3    11    12    1
     4    12    13    1
     5    13    14    1
     6    14    15   ar
     7    15    16   ar
     8    16    17   ar
     9    17    21    1
    10    21    22    1
    11    21    23    1
    12    21    24    1
    13    17    18   ar
    14    18    19   ar
    15    19    20    1
    16     1    10    1
    17     1     2    1
    18     2     3    1
    19     3     4    1
    20     5     4    1
    21     5     6    1
    22     6     7    1
    23     7    25    1
    24    25    27    1
    25    27    28    1
    26    28    29    1
    27    29    30    1
    28    30    31    2
    29    30    32    2
    30    30    33    1
    31    33    34    1
    32     7     8    1
    33    20    11    1
    34     5     1    1
    35    34    27    1
    36    19    14   ar
    37     8     1    1
    38    25    26    1
@<TRIPOS>MOLECULE
*****
 34 38 0 0 0
SMALL
GASTEIGER

@<TRIPOS>ATOM
      1 C         143.5947  143.2381  163.2089 C.3     1  UNL1        0.0704
      2 C         144.6037  142.2461  163.7068 C.3     1  UNL1        0.0087
      3 C         145.1539  142.7566  165.0056 C.3     1  UNL1        0.0005
      4 C         144.4849  144.0641  165.3104 C.3     1  UNL1        0.0005
      5 C         143.5212  144.3617  164.2001 C.3     1  UNL1        0.0095
      6 C         142.5122  145.3536  163.7022 C.3     1  UNL1        0.0162
      7 C         141.9620  144.8431  162.4035 C.3     1  UNL1        0.0544
      8 C         142.6311  143.5357  162.0986 C.3     1  UNL1        0.0243
      9 O         144.6356  142.1857  161.0738 O.2     1  UNL1       -0.2749
     10 C         143.6682  142.1145  162.2179 C.2     1  UNL1        0.2250
     11 N         142.7742  140.9198  162.3709 N.am    1  UNL1       -0.2750
     12 C         142.8476  139.7962  161.3799 C.3     1  UNL1        0.1000
     13 C         141.9537  138.6015  161.5330 C.3     1  UNL1        0.0670
     14 C         140.9862  138.5304  162.6771 C.ar    1  UNL1        0.0583
     15 N         140.0922  137.3356  162.8301 N.ar    1  UNL1       -0.2484
     16 C         139.1248  137.2645  163.9742 C.ar    1  UNL1        0.1023
     17 C         139.0513  138.3881  164.9653 C.ar    1  UNL1        0.0902
     18 C         139.9453  139.5828  164.8122 C.ar    1  UNL1        0.0040
     19 C         140.9127  139.6539  163.6681 C.ar    1  UNL1        0.0113
     20 C         141.8067  140.8486  163.5150 C.3     1  UNL1        0.1213
     21 C         138.0839  138.3169  166.1094 C.3     1  UNL1        0.4200
     22 F         137.1164  138.2458  167.2535 F       1  UNL1       -0.1658
     23 F         138.0541  139.8151  166.1774 F       1  UNL1       -0.1658
     24 F         138.1136  136.8188  166.0414 F       1  UNL1       -0.1658
     25 N         140.9249  145.5211  161.5580 N.3     1  UNL1       -0.2995
     26 H         141.2656  146.4649  161.3744 H       1  UNL1        0.1232
     27 C         140.5375  144.9352  160.2327 C.3     1  UNL1        0.0575
     28 C         139.6236  143.7471  160.1763 C.3     1  UNL1        0.0411
     29 C         139.2362  143.1611  158.8509 C.3     1  UNL1        0.1522
     30 S         139.7627  143.7632  157.5819 S.O2    1  UNL1       -0.0099
     31 O         140.0005  143.9787  156.1167 O.2     1  UNL1       -0.1730
     32 O         138.9314  142.6500  157.0167 O.2     1  UNL1       -0.1730
     33 C         140.6767  144.9514  157.6384 C.3     1  UNL1        0.1522
     34 C         141.0640  145.5373  158.9637 C.3     1  UNL1        0.0411
@<TRIPOS>BOND
     1     9    10    2
     2    10    11   am
     3    11    12    1
     4    12    13    1
     5    13    14    1
     6    14    15   ar
     7    15    16   ar
     8    16    17   ar
     9    17    21    1
    10    21    22    1
    11    21    23    1
    12    21    24    1
    13    17    18   ar
    14    18    19   ar
    15    19    20    1
    16     1    10    1
    17     1     2    1
    18     2     3    1
    19     3     4    1
    20     5     4    1
    21     5     6    1
    22     6     7    1
    23     7    25    1
    24    25    27    1
    25    27    28    1
    26    28    29    1
    27    29    30    1
    28    30    31    2
    29    30    32    2
    30    30    33    1
    31    33    34    1
    32     7     8    1
    33    20    11    1
    34     5     1    1
    35    34    27    1
    36    19    14   ar
    37     8     1    1
    38    25    26    1
