@<TRIPOS>MOLECULE
*****
 34 37 0 0 0
SMALL
GASTEIGER

@<TRIPOS>ATOM
      1 C         140.8293  140.6134  164.6025 C.2     1  UNL1       -0.0040
      2 C         139.3805  140.2309  164.5345 C.2     1  UNL1       -0.0221
      3 C         141.4883  140.8219  165.9337 C.ar    1  UNL1       -0.0003
      4 C         141.6086  142.2046  166.5027 C.ar    1  UNL1       -0.0003
      5 C         142.2677  142.4130  167.8340 C.ar    1  UNL1       -0.0043
      6 C         142.8063  141.2388  168.5962 C.ar    1  UNL1       -0.0218
      7 C         143.4653  141.4473  169.9276 C.3     1  UNL1        0.0310
      8 C         142.6860  139.8562  168.0273 C.ar    1  UNL1       -0.0043
      9 C         142.0270  139.6477  166.6961 C.ar    1  UNL1       -0.0003
     10 C         143.1987  141.1355  160.8126 C.ar    1  UNL1        0.0479
     11 C         142.5632  142.3247  161.4696 C.ar    1  UNL1        0.0145
     12 C         141.7734  142.1507  162.7329 C.ar    1  UNL1        0.0013
     13 C         141.6191  140.7874  163.3392 C.ar    1  UNL1       -0.0002
     14 C         142.2547  139.5982  162.6822 C.ar    1  UNL1        0.0013
     15 C         143.0445  139.7722  161.4189 C.ar    1  UNL1        0.0145
     16 N         145.5681  141.6575  157.0227 N.3     1  UNL1       -0.2698
     17 C         144.6426  140.4868  157.1733 C.3     1  UNL1        0.0938
     18 C         143.8528  140.3127  158.4366 C.3     1  UNL1        0.1081
     19 N         143.9885  141.3095  159.5493 N.pl3   1  UNL1       -0.3046
     20 C         144.9140  142.4802  159.3986 C.3     1  UNL1        0.1081
     21 C         145.7038  142.6542  158.1353 C.3     1  UNL1        0.0938
     22 C         147.7725  142.3265  155.8214 C.3     1  UNL1        0.0188
     23 C         146.3579  141.8315  155.7594 C.3     1  UNL1        0.0722
     24 C         138.7215  140.0224  163.2033 C.ar    1  UNL1       -0.0040
     25 C         138.4893  138.6318  162.6910 C.ar    1  UNL1       -0.0003
     26 C         137.8303  138.4233  161.3598 C.ar    1  UNL1       -0.0000
     27 C         137.4034  139.6053  160.5408 C.ar    1  UNL1       -0.0000
     28 C         137.6356  140.9959  161.0531 C.ar    1  UNL1       -0.0000
     29 C         138.2946  141.2044  162.3844 C.ar    1  UNL1       -0.0003
     30 C         138.5907  140.0569  165.7979 C.3     1  UNL1        0.0289
     31 C         138.2104  138.6818  166.2612 C.3     1  UNL1        0.0364
     32 C         137.4490  138.5057  167.5415 C.3     1  UNL1        0.1375
     33 O         136.4976  137.3564  167.6963 O.3     1  UNL1       -0.3820
     34 H         135.7563  137.4651  167.0803 H       1  UNL1        0.2104
@<TRIPOS>BOND
     1    22    23    1
     2    23    16    1
     3    16    17    1
     4    17    18    1
     5    18    19    1
     6    19    10    1
     7    10    11   ar
     8    11    12   ar
     9    12    13   ar
    10    13     1    1
    11     1     2    2
    12     2    30    1
    13    30    31    1
    14    31    32    1
    15    32    33    1
    16     2    24    1
    17    24    25   ar
    18    25    26   ar
    19    26    27   ar
    20    27    28   ar
    21    28    29   ar
    22     1     3    1
    23     3     4   ar
    24     4     5   ar
    25     5     6   ar
    26     6     7    1
    27     6     8   ar
    28     8     9   ar
    29    13    14   ar
    30    14    15   ar
    31    19    20    1
    32    20    21    1
    33    21    16    1
    34    15    10   ar
    35    29    24   ar
    36     9     3   ar
    37    33    34    1
@<TRIPOS>MOLECULE
*****
 34 37 0 0 0
SMALL
GASTEIGER

@<TRIPOS>ATOM
      1 C         141.0292  140.1916  165.1744 C.2     1  UNL1       -0.0040
      2 C         142.3991  140.1223  165.7814 C.2     1  UNL1       -0.0221
      3 C         139.8775  139.5000  165.8416 C.ar    1  UNL1       -0.0003
      4 C         139.2663  140.0857  167.0799 C.ar    1  UNL1       -0.0003
      5 C         138.1145  139.3940  167.7471 C.ar    1  UNL1       -0.0043
      6 C         137.5740  138.1167  167.1760 C.ar    1  UNL1       -0.0218
      7 C         136.4222  137.4250  167.8432 C.3     1  UNL1        0.0310
      8 C         138.1851  137.5310  165.9377 C.ar    1  UNL1       -0.0043
      9 C         139.3368  138.2226  165.2705 C.ar    1  UNL1       -0.0003
     10 C         140.3745  142.4743  161.3521 C.ar    1  UNL1        0.0479
     11 C         140.1707  143.1520  162.6746 C.ar    1  UNL1        0.0145
     12 C         140.3889  142.3911  163.9488 C.ar    1  UNL1        0.0013
     13 C         140.8109  140.9525  163.9003 C.ar    1  UNL1       -0.0002
     14 C         141.0147  140.2749  162.5778 C.ar    1  UNL1        0.0013
     15 C         140.7965  141.0358  161.3036 C.ar    1  UNL1        0.0145
     16 N         139.7198  144.7571  157.5297 N.3     1  UNL1       -0.2698
     17 C         140.3944  145.4208  158.6935 C.3     1  UNL1        0.0938
     18 C         140.6126  144.6599  159.9676 C.3     1  UNL1        0.1081
     19 N         140.1562  143.2353  160.0780 N.pl3   1  UNL1       -0.3046
     20 C         139.4816  142.5716  158.9142 C.3     1  UNL1        0.1081
     21 C         139.2634  143.3325  157.6401 C.3     1  UNL1        0.0938
     22 C         139.3080  147.0050  156.2938 C.3     1  UNL1        0.0188
     23 C         139.5015  145.5180  156.2556 C.3     1  UNL1        0.0722
     24 C         143.5509  140.8139  165.1142 C.ar    1  UNL1       -0.0040
     25 C         143.8241  142.2609  165.3997 C.ar    1  UNL1       -0.0003
     26 C         144.9759  142.9525  164.7325 C.ar    1  UNL1       -0.0000
     27 C         145.8544  142.1972  163.7798 C.ar    1  UNL1       -0.0000
     28 C         145.5812  140.7502  163.4943 C.ar    1  UNL1       -0.0000
     29 C         144.4294  140.0585  164.1615 C.ar    1  UNL1       -0.0003
     30 C         142.6173  139.3614  167.0555 C.3     1  UNL1        0.0289
     31 C         142.6684  140.0907  168.3653 C.3     1  UNL1        0.0364
     32 C         142.3033  139.3795  169.6345 C.3     1  UNL1        0.1375
     33 O         143.2666  139.3545  170.7840 O.3     1  UNL1       -0.3820
     34 H         144.0546  138.8470  170.5345 H       1  UNL1        0.2104
@<TRIPOS>BOND
     1    22    23    1
     2    23    16    1
     3    16    17    1
     4    17    18    1
     5    18    19    1
     6    19    10    1
     7    10    11   ar
     8    11    12   ar
     9    12    13   ar
    10    13     1    1
    11     1     2    2
    12     2    30    1
    13    30    31    1
    14    31    32    1
    15    32    33    1
    16     2    24    1
    17    24    25   ar
    18    25    26   ar
    19    26    27   ar
    20    27    28   ar
    21    28    29   ar
    22     1     3    1
    23     3     4   ar
    24     4     5   ar
    25     5     6   ar
    26     6     7    1
    27     6     8   ar
    28     8     9   ar
    29    13    14   ar
    30    14    15   ar
    31    19    20    1
    32    20    21    1
    33    21    16    1
    34    15    10   ar
    35    29    24   ar
    36     9     3   ar
    37    33    34    1
@<TRIPOS>MOLECULE
*****
 34 37 0 0 0
SMALL
GASTEIGER

@<TRIPOS>ATOM
      1 C         140.6370  141.2123  165.7766 C.2     1  UNL1       -0.0040
      2 C         139.8117  139.9611  165.8352 C.2     1  UNL1       -0.0221
      3 C         141.2231  141.7836  167.0335 C.ar    1  UNL1       -0.0003
      4 C         140.3759  142.6254  167.9410 C.ar    1  UNL1       -0.0003
      5 C         140.9622  143.1968  169.1980 C.ar    1  UNL1       -0.0043
      6 C         142.3956  142.9263  169.5474 C.ar    1  UNL1       -0.0218
      7 C         142.9818  143.4977  170.8044 C.3     1  UNL1        0.0310
      8 C         143.2428  142.0845  168.6399 C.ar    1  UNL1       -0.0043
      9 C         142.6566  141.5132  167.3830 C.ar    1  UNL1       -0.0003
     10 C         141.3543  143.2517  161.8299 C.ar    1  UNL1        0.0479
     11 C         140.4530  143.8845  162.8482 C.ar    1  UNL1        0.0145
     12 C         140.2139  143.2047  164.1638 C.ar    1  UNL1        0.0013
     13 C         140.8761  141.8921  164.4610 C.ar    1  UNL1       -0.0002
     14 C         141.7774  141.2592  163.4427 C.ar    1  UNL1        0.0013
     15 C         142.0165  141.9390  162.1271 C.ar    1  UNL1        0.0145
     16 N         142.0717  145.2910  157.8832 N.3     1  UNL1       -0.2698
     17 C         141.0668  145.8517  158.8454 C.3     1  UNL1        0.0938
     18 C         140.8277  145.1719  160.1610 C.3     1  UNL1        0.1081
     19 N         141.5934  143.9315  160.5143 N.pl3   1  UNL1       -0.3046
     20 C         142.5983  143.3708  159.5521 C.3     1  UNL1        0.1081
     21 C         142.8374  144.0506  158.2366 C.3     1  UNL1        0.0938
     22 C         142.2222  145.1874  155.2916 C.3     1  UNL1        0.0188
     23 C         142.3108  145.9708  156.5676 C.3     1  UNL1        0.0722
     24 C         139.2254  139.3897  164.5782 C.ar    1  UNL1       -0.0040
     25 C         138.2280  140.1835  163.7876 C.ar    1  UNL1       -0.0003
     26 C         137.6418  139.6121  162.5307 C.ar    1  UNL1       -0.0000
     27 C         138.0530  138.2470  162.0644 C.ar    1  UNL1       -0.0000
     28 C         139.0504  137.4532  162.8550 C.ar    1  UNL1       -0.0000
     29 C         139.6366  138.0247  164.1120 C.ar    1  UNL1       -0.0003
     30 C         139.5725  139.2814  167.1508 C.3     1  UNL1        0.0289
     31 C         138.1787  139.1663  167.6931 C.3     1  UNL1        0.0364
     32 C         137.2750  138.0698  167.2124 C.3     1  UNL1        0.1375
     33 O         136.2592  137.4738  168.1412 O.3     1  UNL1       -0.3820
     34 H         136.7131  137.0066  168.8600 H       1  UNL1        0.2104
@<TRIPOS>BOND
     1    22    23    1
     2    23    16    1
     3    16    17    1
     4    17    18    1
     5    18    19    1
     6    19    10    1
     7    10    11   ar
     8    11    12   ar
     9    12    13   ar
    10    13     1    1
    11     1     2    2
    12     2    30    1
    13    30    31    1
    14    31    32    1
    15    32    33    1
    16     2    24    1
    17    24    25   ar
    18    25    26   ar
    19    26    27   ar
    20    27    28   ar
    21    28    29   ar
    22     1     3    1
    23     3     4   ar
    24     4     5   ar
    25     5     6   ar
    26     6     7    1
    27     6     8   ar
    28     8     9   ar
    29    13    14   ar
    30    14    15   ar
    31    19    20    1
    32    20    21    1
    33    21    16    1
    34    15    10   ar
    35    29    24   ar
    36     9     3   ar
    37    33    34    1
@<TRIPOS>MOLECULE
*****
 34 37 0 0 0
SMALL
GASTEIGER

@<TRIPOS>ATOM
      1 C         140.5426  141.0710  164.1788 C.2     1  UNL1       -0.0040
      2 C         141.7262  141.6808  164.8694 C.2     1  UNL1       -0.0221
      3 C         139.7353  140.0117  164.8688 C.ar    1  UNL1       -0.0003
      4 C         139.8316  138.5838  164.4198 C.ar    1  UNL1       -0.0003
      5 C         139.0242  137.5245  165.1099 C.ar    1  UNL1       -0.0043
      6 C         138.1206  137.8932  166.2490 C.ar    1  UNL1       -0.0218
      7 C         137.3133  136.8339  166.9391 C.3     1  UNL1        0.0310
      8 C         138.0243  139.3212  166.6980 C.ar    1  UNL1       -0.0043
      9 C         138.8316  140.3804  166.0080 C.ar    1  UNL1       -0.0003
     10 C         139.4134  142.4193  160.0367 C.ar    1  UNL1        0.0479
     11 C         138.7884  143.0715  161.2342 C.ar    1  UNL1        0.0145
     12 C         139.1648  142.6221  162.6149 C.ar    1  UNL1        0.0013
     13 C         140.1662  141.5204  162.7981 C.ar    1  UNL1       -0.0002
     14 C         140.7912  140.8682  161.6006 C.ar    1  UNL1        0.0013
     15 C         140.4148  141.3177  160.2199 C.ar    1  UNL1        0.0145
     16 N         138.2843  143.7677  155.8946 N.3     1  UNL1       -0.2698
     17 C         137.5209  142.6592  156.5566 C.3     1  UNL1        0.0938
     18 C         137.8973  142.2097  157.9373 C.3     1  UNL1        0.1081
     19 N         139.0370  142.8688  158.6560 N.pl3   1  UNL1       -0.3046
     20 C         139.8004  143.9773  157.9939 C.3     1  UNL1        0.1081
     21 C         139.4240  144.4268  156.6132 C.3     1  UNL1        0.0938
     22 C         136.6963  143.6421  153.8422 C.3     1  UNL1        0.0188
     23 C         137.9079  144.2172  154.5139 C.3     1  UNL1        0.0722
     24 C         142.5336  142.7401  164.1794 C.ar    1  UNL1       -0.0040
     25 C         143.7440  142.3587  163.3798 C.ar    1  UNL1       -0.0003
     26 C         144.5514  143.4179  162.6898 C.ar    1  UNL1       -0.0000
     27 C         144.1483  144.8586  162.7993 C.ar    1  UNL1       -0.0000
     28 C         142.9378  145.2400  163.5988 C.ar    1  UNL1       -0.0000
     29 C         142.1305  144.1807  164.2889 C.ar    1  UNL1       -0.0003
     30 C         142.1026  141.2313  166.2501 C.3     1  UNL1        0.0289
     31 C         143.0080  142.0789  167.0940 C.3     1  UNL1        0.0364
     32 C         142.9346  141.9952  168.5899 C.3     1  UNL1        0.1375
     33 O         143.9556  142.7015  169.4315 O.3     1  UNL1       -0.3820
     34 H         144.8266  142.2990  169.2890 H       1  UNL1        0.2104
@<TRIPOS>BOND
     1    22    23    1
     2    23    16    1
     3    16    17    1
     4    17    18    1
     5    18    19    1
     6    19    10    1
     7    10    11   ar
     8    11    12   ar
     9    12    13   ar
    10    13     1    1
    11     1     2    2
    12     2    30    1
    13    30    31    1
    14    31    32    1
    15    32    33    1
    16     2    24    1
    17    24    25   ar
    18    25    26   ar
    19    26    27   ar
    20    27    28   ar
    21    28    29   ar
    22     1     3    1
    23     3     4   ar
    24     4     5   ar
    25     5     6   ar
    26     6     7    1
    27     6     8   ar
    28     8     9   ar
    29    13    14   ar
    30    14    15   ar
    31    19    20    1
    32    20    21    1
    33    21    16    1
    34    15    10   ar
    35    29    24   ar
    36     9     3   ar
    37    33    34    1
@<TRIPOS>MOLECULE
*****
 34 37 0 0 0
SMALL
GASTEIGER

@<TRIPOS>ATOM
      1 C         140.5078  140.9794  164.2072 C.2     1  UNL1       -0.0040
      2 C         141.7004  141.5686  164.9003 C.2     1  UNL1       -0.0221
      3 C         139.6932  139.9192  164.8872 C.ar    1  UNL1       -0.0003
      4 C         138.8548  140.2680  166.0812 C.ar    1  UNL1       -0.0003
      5 C         138.0402  139.2077  166.7611 C.ar    1  UNL1       -0.0043
      6 C         138.0639  137.7988  166.2471 C.ar    1  UNL1       -0.0218
      7 C         137.2493  136.7385  166.9271 C.3     1  UNL1        0.0310
      8 C         138.9023  137.4500  165.0531 C.ar    1  UNL1       -0.0043
      9 C         139.7169  138.5102  164.3732 C.ar    1  UNL1       -0.0003
     10 C         139.3738  142.3923  160.0880 C.ar    1  UNL1        0.0479
     11 C         140.4354  141.3460  160.2563 C.ar    1  UNL1        0.0145
     12 C         140.8134  140.8751  161.6293 C.ar    1  UNL1        0.0013
     13 C         140.1298  141.4503  162.8342 C.ar    1  UNL1       -0.0002
     14 C         139.0682  142.4966  162.6659 C.ar    1  UNL1        0.0013
     15 C         138.6902  142.9675  161.2929 C.ar    1  UNL1        0.0145
     16 N         138.2398  143.8051  155.9688 N.3     1  UNL1       -0.2698
     17 C         139.4286  144.3989  156.6645 C.3     1  UNL1        0.0938
     18 C         139.8066  143.9280  158.0376 C.3     1  UNL1        0.1081
     19 N         138.9958  142.8632  158.7150 N.pl3   1  UNL1       -0.3046
     20 C         137.8069  142.2694  158.0192 C.3     1  UNL1        0.1081
     21 C         137.4289  142.7404  156.6462 C.3     1  UNL1        0.0938
     22 C         136.6423  143.7207  153.9216 C.3     1  UNL1        0.0188
     23 C         137.8618  144.2761  154.5958 C.3     1  UNL1        0.0722
     24 C         142.5151  142.6289  164.2204 C.ar    1  UNL1       -0.0040
     25 C         143.7250  142.2471  163.4203 C.ar    1  UNL1       -0.0003
     26 C         144.5397  143.3072  162.7403 C.ar    1  UNL1       -0.0000
     27 C         144.1444  144.7492  162.8605 C.ar    1  UNL1       -0.0000
     28 C         142.9345  145.1310  163.6606 C.ar    1  UNL1       -0.0000
     29 C         142.1198  144.0708  164.3406 C.ar    1  UNL1       -0.0003
     30 C         142.0784  141.0977  166.2734 C.3     1  UNL1        0.0289
     31 C         143.1588  140.0710  166.4432 C.3     1  UNL1        0.0364
     32 C         143.0897  138.7774  165.6870 C.3     1  UNL1        0.1375
     33 O         143.5414  138.7190  164.2579 O.3     1  UNL1       -0.3820
     34 H         142.9509  139.2591  163.7098 H       1  UNL1        0.2104
@<TRIPOS>BOND
     1    22    23    1
     2    23    16    1
     3    16    17    1
     4    17    18    1
     5    18    19    1
     6    19    10    1
     7    10    11   ar
     8    11    12   ar
     9    12    13   ar
    10    13     1    1
    11     1     2    2
    12     2    30    1
    13    30    31    1
    14    31    32    1
    15    32    33    1
    16     2    24    1
    17    24    25   ar
    18    25    26   ar
    19    26    27   ar
    20    27    28   ar
    21    28    29   ar
    22     1     3    1
    23     3     4   ar
    24     4     5   ar
    25     5     6   ar
    26     6     7    1
    27     6     8   ar
    28     8     9   ar
    29    13    14   ar
    30    14    15   ar
    31    19    20    1
    32    20    21    1
    33    21    16    1
    34    15    10   ar
    35    29    24   ar
    36     9     3   ar
    37    33    34    1
@<TRIPOS>MOLECULE
*****
 34 37 0 0 0
SMALL
GASTEIGER

@<TRIPOS>ATOM
      1 C         142.3974  138.0839  157.0904 C.2     1  UNL1       -0.0040
      2 C         143.0474  139.2843  156.4688 C.2     1  UNL1       -0.0221
      3 C         142.3831  136.7752  156.3577 C.ar    1  UNL1       -0.0003
      4 C         141.1633  136.3582  155.5907 C.ar    1  UNL1       -0.0003
      5 C         141.1491  135.0494  154.8581 C.ar    1  UNL1       -0.0043
      6 C         142.3546  134.1575  154.8924 C.ar    1  UNL1       -0.0218
      7 C         142.3404  132.8486  154.1597 C.3     1  UNL1        0.0310
      8 C         143.5744  134.5744  155.6594 C.ar    1  UNL1       -0.0043
      9 C         143.5887  135.8832  156.3920 C.ar    1  UNL1       -0.0003
     10 C         140.4902  138.4091  161.1532 C.ar    1  UNL1        0.0479
     11 C         139.6776  138.6719  159.9201 C.ar    1  UNL1        0.0145
     12 C         140.3134  138.5635  158.5658 C.ar    1  UNL1        0.0013
     13 C         141.7616  138.1923  158.4447 C.ar    1  UNL1       -0.0002
     14 C         142.5742  137.9295  159.6778 C.ar    1  UNL1        0.0013
     15 C         141.9384  138.0379  161.0321 C.ar    1  UNL1        0.0145
     16 N         138.5830  138.7342  165.2161 N.3     1  UNL1       -0.2698
     17 C         138.3465  139.8014  164.1890 C.3     1  UNL1        0.0938
     18 C         138.9822  139.6930  162.8347 C.3     1  UNL1        0.1081
     19 N         139.8544  138.5174  162.5075 N.pl3   1  UNL1       -0.3046
     20 C         140.0909  137.4502  163.5346 C.3     1  UNL1        0.1081
     21 C         139.4552  137.5585  164.8889 C.3     1  UNL1        0.0938
     22 C         137.2551  137.6552  167.1712 C.3     1  UNL1        0.0188
     23 C         137.9472  138.8425  166.5704 C.3     1  UNL1        0.0722
     24 C         143.0617  140.5932  157.2014 C.ar    1  UNL1       -0.0040
     25 C         142.0023  141.6187  156.9255 C.ar    1  UNL1       -0.0003
     26 C         142.0166  142.9276  157.6581 C.ar    1  UNL1       -0.0000
     27 C         143.0902  143.2109  158.6667 C.ar    1  UNL1       -0.0000
     28 C         144.1495  142.1854  158.9426 C.ar    1  UNL1       -0.0000
     29 C         144.1352  140.8765  158.2099 C.ar    1  UNL1       -0.0003
     30 C         143.6831  139.1760  155.1145 C.3     1  UNL1        0.0289
     31 C         145.1773  139.1949  154.9837 C.3     1  UNL1        0.0364
     32 C         145.9018  140.5013  154.8476 C.3     1  UNL1        0.1375
     33 O         146.7370  141.0174  155.9816 O.3     1  UNL1       -0.3820
     34 H         146.1641  141.2273  156.7357 H       1  UNL1        0.2104
@<TRIPOS>BOND
     1    22    23    1
     2    23    16    1
     3    16    17    1
     4    17    18    1
     5    18    19    1
     6    19    10    1
     7    10    11   ar
     8    11    12   ar
     9    12    13   ar
    10    13     1    1
    11     1     2    2
    12     2    30    1
    13    30    31    1
    14    31    32    1
    15    32    33    1
    16     2    24    1
    17    24    25   ar
    18    25    26   ar
    19    26    27   ar
    20    27    28   ar
    21    28    29   ar
    22     1     3    1
    23     3     4   ar
    24     4     5   ar
    25     5     6   ar
    26     6     7    1
    27     6     8   ar
    28     8     9   ar
    29    13    14   ar
    30    14    15   ar
    31    19    20    1
    32    20    21    1
    33    21    16    1
    34    15    10   ar
    35    29    24   ar
    36     9     3   ar
    37    33    34    1
@<TRIPOS>MOLECULE
*****
 34 37 0 0 0
SMALL
GASTEIGER

@<TRIPOS>ATOM
      1 C         140.3401  141.3012  159.1428 C.2     1  UNL1       -0.0040
      2 C         139.9258  141.3194  160.5843 C.2     1  UNL1       -0.0221
      3 C         140.3445  142.5731  158.3476 C.ar    1  UNL1       -0.0003
      4 C         139.1752  142.9144  157.4723 C.ar    1  UNL1       -0.0003
      5 C         139.1796  144.1864  156.6771 C.ar    1  UNL1       -0.0043
      6 C         140.3533  145.1169  156.7573 C.ar    1  UNL1       -0.0218
      7 C         140.3578  146.3888  155.9621 C.3     1  UNL1        0.0310
      8 C         141.5227  144.7755  157.6326 C.ar    1  UNL1       -0.0043
      9 C         141.5183  143.5037  158.4277 C.ar    1  UNL1       -0.0003
     10 C         141.5701  137.4312  157.2039 C.ar    1  UNL1        0.0479
     11 C         142.5919  138.2773  157.9038 C.ar    1  UNL1        0.0145
     12 C         142.1819  139.5673  158.5501 C.ar    1  UNL1        0.0013
     13 C         140.7501  140.0112  158.4965 C.ar    1  UNL1       -0.0002
     14 C         139.7284  139.1651  157.7965 C.ar    1  UNL1        0.0013
     15 C         140.1384  137.8751  157.1502 C.ar    1  UNL1        0.0145
     16 N         142.8002  133.5611  155.2649 N.3     1  UNL1       -0.2698
     17 C         141.5656  134.2742  154.7989 C.3     1  UNL1        0.0938
     18 C         141.1556  135.5642  155.4453 C.3     1  UNL1        0.1081
     19 N         141.9802  136.1411  156.5575 N.pl3   1  UNL1       -0.3046
     20 C         143.2147  135.4280  157.0235 C.3     1  UNL1        0.1081
     21 C         143.6247  134.1380  156.3772 C.3     1  UNL1        0.0938
     22 C         144.1119  131.3200  155.3482 C.3     1  UNL1        0.0188
     23 C         143.2102  132.2710  154.6186 C.3     1  UNL1        0.0722
     24 C         139.9214  140.0475  161.3795 C.ar    1  UNL1       -0.0040
     25 C         141.1307  139.6571  162.1764 C.ar    1  UNL1       -0.0003
     26 C         141.1264  138.3853  162.9716 C.ar    1  UNL1       -0.0000
     27 C         139.9126  137.5038  162.9700 C.ar    1  UNL1       -0.0000
     28 C         138.7032  137.8943  162.1731 C.ar    1  UNL1       -0.0000
     29 C         138.7076  139.1662  161.3779 C.ar    1  UNL1       -0.0003
     30 C         139.5157  142.6095  161.2306 C.3     1  UNL1        0.0289
     31 C         138.0807  142.8394  161.6020 C.3     1  UNL1        0.0364
     32 C         137.5881  142.4547  162.9656 C.3     1  UNL1        0.1375
     33 O         136.6081  141.3295  163.1192 O.3     1  UNL1       -0.3820
     34 H         135.7658  141.5756  162.7058 H       1  UNL1        0.2104
@<TRIPOS>BOND
     1    22    23    1
     2    23    16    1
     3    16    17    1
     4    17    18    1
     5    18    19    1
     6    19    10    1
     7    10    11   ar
     8    11    12   ar
     9    12    13   ar
    10    13     1    1
    11     1     2    2
    12     2    30    1
    13    30    31    1
    14    31    32    1
    15    32    33    1
    16     2    24    1
    17    24    25   ar
    18    25    26   ar
    19    26    27   ar
    20    27    28   ar
    21    28    29   ar
    22     1     3    1
    23     3     4   ar
    24     4     5   ar
    25     5     6   ar
    26     6     7    1
    27     6     8   ar
    28     8     9   ar
    29    13    14   ar
    30    14    15   ar
    31    19    20    1
    32    20    21    1
    33    21    16    1
    34    15    10   ar
    35    29    24   ar
    36     9     3   ar
    37    33    34    1
@<TRIPOS>MOLECULE
*****
 34 37 0 0 0
SMALL
GASTEIGER

@<TRIPOS>ATOM
      1 C         140.5553  140.2851  163.7638 C.2     1  UNL1       -0.0040
      2 C         141.9683  140.5974  164.1583 C.2     1  UNL1       -0.0221
      3 C         139.6500  139.5690  164.7217 C.ar    1  UNL1       -0.0003
      4 C         139.3952  138.1000  164.5572 C.ar    1  UNL1       -0.0003
      5 C         138.4899  137.3839  165.5153 C.ar    1  UNL1       -0.0043
      6 C         137.8395  138.1369  166.6377 C.ar    1  UNL1       -0.0218
      7 C         136.9342  137.4208  167.5958 C.3     1  UNL1        0.0310
      8 C         138.0943  139.6059  166.8022 C.ar    1  UNL1       -0.0043
      9 C         138.9996  140.3220  165.8443 C.ar    1  UNL1       -0.0003
     10 C         139.0319  141.4962  159.7064 C.ar    1  UNL1        0.0479
     11 C         139.6145  140.1293  159.9114 C.ar    1  UNL1        0.0145
     12 C         140.1223  139.7256  161.2639 C.ar    1  UNL1        0.0013
     13 C         140.0475  140.6888  162.4113 C.ar    1  UNL1       -0.0002
     14 C         139.4648  142.0556  162.2063 C.ar    1  UNL1        0.0013
     15 C         138.9570  142.4593  160.8538 C.ar    1  UNL1        0.0145
     16 N         137.5084  142.7072  155.6490 N.3     1  UNL1       -0.2698
     17 C         136.9907  141.4606  156.3031 C.3     1  UNL1        0.0938
     18 C         137.4985  141.0569  157.6555 C.3     1  UNL1        0.1081
     19 N         138.5240  141.8999  158.3539 N.pl3   1  UNL1       -0.3046
     20 C         139.0417  143.1465  157.6998 C.3     1  UNL1        0.1081
     21 C         138.5339  143.5502  156.3473 C.3     1  UNL1        0.0938
     22 C         135.8625  142.3624  153.6686 C.3     1  UNL1        0.0188
     23 C         137.0006  143.1109  154.2965 C.3     1  UNL1        0.0722
     24 C         142.8737  141.3135  163.2003 C.ar    1  UNL1       -0.0040
     25 C         143.0540  142.7989  163.3066 C.ar    1  UNL1       -0.0003
     26 C         143.9592  143.5150  162.3487 C.ar    1  UNL1       -0.0000
     27 C         144.6842  142.7457  161.2844 C.ar    1  UNL1       -0.0000
     28 C         144.5039  141.2604  161.1780 C.ar    1  UNL1       -0.0000
     29 C         143.5986  140.5443  162.1360 C.ar    1  UNL1       -0.0003
     30 C         142.4761  140.1937  165.5107 C.3     1  UNL1        0.0289
     31 C         142.7855  138.7540  165.7966 C.3     1  UNL1        0.0364
     32 C         144.1901  138.3388  166.1203 C.3     1  UNL1        0.1375
     33 O         144.4372  137.2201  167.0885 O.3     1  UNL1       -0.3820
     34 H         144.1388  137.4857  167.9724 H       1  UNL1        0.2104
@<TRIPOS>BOND
     1    22    23    1
     2    23    16    1
     3    16    17    1
     4    17    18    1
     5    18    19    1
     6    19    10    1
     7    10    11   ar
     8    11    12   ar
     9    12    13   ar
    10    13     1    1
    11     1     2    2
    12     2    30    1
    13    30    31    1
    14    31    32    1
    15    32    33    1
    16     2    24    1
    17    24    25   ar
    18    25    26   ar
    19    26    27   ar
    20    27    28   ar
    21    28    29   ar
    22     1     3    1
    23     3     4   ar
    24     4     5   ar
    25     5     6   ar
    26     6     7    1
    27     6     8   ar
    28     8     9   ar
    29    13    14   ar
    30    14    15   ar
    31    19    20    1
    32    20    21    1
    33    21    16    1
    34    15    10   ar
    35    29    24   ar
    36     9     3   ar
    37    33    34    1
@<TRIPOS>MOLECULE
*****
 34 37 0 0 0
SMALL
GASTEIGER

@<TRIPOS>ATOM
      1 C         140.5411  141.5654  161.9900 C.2     1  UNL1       -0.0040
      2 C         140.6967  143.0341  161.7284 C.2     1  UNL1       -0.0221
      3 C         140.2063  141.0806  163.3694 C.ar    1  UNL1       -0.0003
      4 C         138.7773  140.8288  163.7496 C.ar    1  UNL1       -0.0003
      5 C         138.4425  140.3440  165.1291 C.ar    1  UNL1       -0.0043
      6 C         139.5366  140.1111  166.1284 C.ar    1  UNL1       -0.0218
      7 C         139.2018  139.6263  167.5079 C.3     1  UNL1        0.0310
      8 C         140.9656  140.3629  165.7482 C.ar    1  UNL1       -0.0043
      9 C         141.3005  140.8477  164.3688 C.ar    1  UNL1       -0.0003
     10 C         141.0790  138.6133  158.6365 C.ar    1  UNL1        0.0479
     11 C         139.7392  139.2455  158.8715 C.ar    1  UNL1        0.0145
     12 C         139.5599  140.2295  159.9894 C.ar    1  UNL1        0.0013
     13 C         140.7204  140.5814  160.8722 C.ar    1  UNL1       -0.0002
     14 C         142.0602  139.9492  160.6371 C.ar    1  UNL1        0.0013
     15 C         142.2395  138.9652  159.5193 C.ar    1  UNL1        0.0145
     16 N         141.6168  135.6613  155.2829 N.3     1  UNL1       -0.2698
     17 C         142.7316  135.9005  156.2575 C.3     1  UNL1        0.0938
     18 C         142.5523  136.8845  157.3754 C.3     1  UNL1        0.1081
     19 N         141.2582  137.6293  157.5186 N.pl3   1  UNL1       -0.3046
     20 C         140.1434  137.3901  156.5440 C.3     1  UNL1        0.1081
     21 C         140.3227  136.4061  155.4262 C.3     1  UNL1        0.0938
     22 C         141.9168  133.2130  154.4671 C.3     1  UNL1        0.0188
     23 C         141.7961  134.6773  154.1651 C.3     1  UNL1        0.0722
     24 C         141.0316  143.5190  160.3490 C.ar    1  UNL1       -0.0040
     25 C         142.4560  143.5177  159.8788 C.ar    1  UNL1       -0.0003
     26 C         142.7909  144.0025  158.4994 C.ar    1  UNL1       -0.0000
     27 C         141.7014  144.4886  157.5901 C.ar    1  UNL1       -0.0000
     28 C         140.2769  144.4898  158.0603 C.ar    1  UNL1       -0.0000
     29 C         139.9421  144.0050  159.4397 C.ar    1  UNL1       -0.0003
     30 C         140.5174  144.0181  162.8463 C.3     1  UNL1        0.0289
     31 C         139.2946  144.8857  162.8929 C.3     1  UNL1        0.0364
     32 C         137.9353  144.2606  163.0001 C.3     1  UNL1        0.1375
     33 O         137.3942  143.4428  161.8650 O.3     1  UNL1       -0.3820
     34 H         137.2497  144.0145  161.0948 H       1  UNL1        0.2104
@<TRIPOS>BOND
     1    22    23    1
     2    23    16    1
     3    16    17    1
     4    17    18    1
     5    18    19    1
     6    19    10    1
     7    10    11   ar
     8    11    12   ar
     9    12    13   ar
    10    13     1    1
    11     1     2    2
    12     2    30    1
    13    30    31    1
    14    31    32    1
    15    32    33    1
    16     2    24    1
    17    24    25   ar
    18    25    26   ar
    19    26    27   ar
    20    27    28   ar
    21    28    29   ar
    22     1     3    1
    23     3     4   ar
    24     4     5   ar
    25     5     6   ar
    26     6     7    1
    27     6     8   ar
    28     8     9   ar
    29    13    14   ar
    30    14    15   ar
    31    19    20    1
    32    20    21    1
    33    21    16    1
    34    15    10   ar
    35    29    24   ar
    36     9     3   ar
    37    33    34    1
