@<TRIPOS>MOLECULE
*****
 38 41 0 0 0
SMALL
GASTEIGER

@<TRIPOS>ATOM
      1 O         140.6449  140.4157  159.3546 O.2     1  UNL1       -0.2733
      2 C         141.5405  139.2160  159.2615 C.2     1  UNL1        0.2425
      3 N         141.4744  138.1474  160.3121 N.am    1  UNL1       -0.3032
      4 H         142.0622  137.3601  160.2511 H       1  UNL1        0.1495
      5 C         140.5127  138.2786  161.4559 C.3     1  UNL1        0.0889
      6 C         139.0337  138.0353  161.3965 C.3     1  UNL1        0.0383
      7 C         138.4681  138.2824  162.7637 C.3     1  UNL1        0.0738
      8 N         139.5976  138.6784  163.6680 N.3     1  UNL1       -0.2725
      9 C         140.8611  138.6760  162.8597 C.3     1  UNL1        0.0919
     10 C         139.4834  139.0172  165.1247 C.3     1  UNL1        0.0577
     11 C         138.2136  138.7212  165.8663 C.3     1  UNL1        0.0188
     12 C         138.0994  139.0601  167.3230 C.3     1  UNL1        0.0341
     13 C         139.2551  139.6948  168.0382 C.3     1  UNL1        0.1249
     14 O         138.2675  139.6090  169.1639 O.3     1  UNL1       -0.3811
     15 C         140.5249  139.9908  167.2967 C.3     1  UNL1        0.0341
     16 C         140.6391  139.6520  165.8399 C.3     1  UNL1        0.0188
     17 H         137.4453  139.2067  168.8428 H       1  UNL1        0.2107
     18 C         140.0678  140.2998  169.1444 C.ar    1  UNL1        0.1045
     19 C         141.5398  140.0248  169.2303 C.ar    1  UNL1        0.0205
     20 C         142.3525  140.6298  170.3365 C.ar    1  UNL1        0.0239
     21 C         141.6930  141.5098  171.3568 C.ar    1  UNL1        0.1222
     22 N         140.2209  141.7847  171.2708 N.ar    1  UNL1       -0.1466
     23 N         139.4083  141.1797  170.1646 N.ar    1  UNL1       -0.1500
     24 C         142.5022  139.0848  158.1179 C.3     1  UNL1        0.1759
     25 N         142.9444  137.7259  157.6619 N.am    1  UNL1       -0.2931
     26 C         142.0390  136.8904  156.8063 C.2     1  UNL1        0.2462
     27 O         140.6913  137.4138  156.4066 O.2     1  UNL1       -0.2701
     28 H         143.8290  137.3824  157.9243 H       1  UNL1        0.1502
     29 C         142.4813  135.5315  156.3503 C.ar    1  UNL1        0.0533
     30 C         141.9194  134.9436  155.0900 C.ar    1  UNL1        0.0045
     31 C         142.3616  133.5848  154.6341 C.ar    1  UNL1        0.0001
     32 C         143.3659  132.8139  155.4385 C.ar    1  UNL1        0.0039
     33 C         143.9279  133.4018  156.6989 C.ar    1  UNL1        0.0716
     34 C         143.4856  134.7606  157.1548 C.ar    1  UNL1        0.0084
     35 C         144.9322  132.6308  157.5033 C.3     1  UNL1        0.4186
     36 F         145.9364  131.8599  158.3077 F       1  UNL1       -0.1659
     37 F         144.6415  133.4951  158.6944 F       1  UNL1       -0.1659
     38 F         145.2228  131.7666  156.3122 F       1  UNL1       -0.1659
@<TRIPOS>BOND
     1     1     2    2
     2     2    24    1
     3    24    25    1
     4    25    26   am
     5    26    27    2
     6    26    29    1
     7    29    30   ar
     8    30    31   ar
     9    31    32   ar
    10    32    33   ar
    11    33    35    1
    12    35    36    1
    13    35    37    1
    14    35    38    1
    15    33    34   ar
    16     2     3   am
    17     5     3    1
    18     5     6    1
    19     6     7    1
    20     7     8    1
    21    10     8    1
    22    10    11    1
    23    11    12    1
    24    12    13    1
    25    13    14    1
    26    13    18    1
    27    18    19   ar
    28    19    20   ar
    29    20    21   ar
    30    21    22   ar
    31    22    23   ar
    32    13    15    1
    33    15    16    1
    34     8     9    1
    35    34    29   ar
    36     9     5    1
    37    16    10    1
    38    23    18   ar
    39    25    28    1
    40     3     4    1
    41    14    17    1
@<TRIPOS>MOLECULE
*****
 38 41 0 0 0
SMALL
GASTEIGER

@<TRIPOS>ATOM
      1 O         141.9178  140.3597  159.0613 O.2     1  UNL1       -0.2733
      2 C         142.9502  139.3115  158.7686 C.2     1  UNL1        0.2425
      3 N         143.9858  138.9706  159.7987 N.am    1  UNL1       -0.3032
      4 H         144.6634  138.2827  159.6066 H       1  UNL1        0.1495
      5 C         143.9891  139.6778  161.1216 C.3     1  UNL1        0.0889
      6 C         144.4359  141.0886  161.3661 C.3     1  UNL1        0.0383
      7 C         144.2691  141.3810  162.8278 C.3     1  UNL1        0.0738
      8 N         143.7193  140.1508  163.4868 N.3     1  UNL1       -0.2725
      9 C         143.5462  139.0981  162.4323 C.3     1  UNL1        0.0919
     10 C         143.3988  139.9997  164.9444 C.3     1  UNL1        0.0577
     11 C         143.6867  138.7052  165.6454 C.3     1  UNL1        0.0188
     12 C         143.3662  138.5542  167.1029 C.3     1  UNL1        0.0341
     13 C         142.7578  139.6977  167.8594 C.3     1  UNL1        0.1249
     14 O         142.8449  138.6772  168.9554 O.3     1  UNL1       -0.3811
     15 C         142.4698  140.9921  167.1584 C.3     1  UNL1        0.0341
     16 C         142.7903  141.1432  165.7009 C.3     1  UNL1        0.0188
     17 H         143.2310  137.8590  168.6054 H       1  UNL1        0.2107
     18 C         142.1796  140.4867  168.9966 C.ar    1  UNL1        0.1045
     19 C         142.6337  141.8955  169.2393 C.ar    1  UNL1        0.0205
     20 C         142.0555  142.6845  170.3765 C.ar    1  UNL1        0.0239
     21 C         141.0231  142.0646  171.2710 C.ar    1  UNL1        0.1222
     22 N         140.5690  140.6557  171.0282 N.ar    1  UNL1       -0.1466
     23 N         141.1473  139.8668  169.8911 N.ar    1  UNL1       -0.1500
     24 C         142.9469  138.6044  157.4458 C.3     1  UNL1        0.1759
     25 N         142.6400  137.1375  157.3803 N.am    1  UNL1       -0.2931
     26 C         143.4461  136.2418  156.4870 C.2     1  UNL1        0.2462
     27 O         144.5591  136.8129  155.6593 O.2     1  UNL1       -0.2701
     28 H         141.9095  136.7627  157.9235 H       1  UNL1        0.1502
     29 C         143.1391  134.7750  156.4214 C.ar    1  UNL1        0.0533
     30 C         141.9594  134.2901  155.6321 C.ar    1  UNL1        0.0045
     31 C         141.6526  132.8234  155.5665 C.ar    1  UNL1        0.0001
     32 C         142.5254  131.8414  156.2904 C.ar    1  UNL1        0.0039
     33 C         143.7051  132.3263  157.0798 C.ar    1  UNL1        0.0716
     34 C         144.0120  133.7930  157.1453 C.ar    1  UNL1        0.0084
     35 C         144.5779  131.3443  157.8036 C.3     1  UNL1        0.4186
     36 F         145.4508  130.3624  158.5275 F       1  UNL1       -0.1659
     37 F         143.6143  130.2436  157.4723 F       1  UNL1       -0.1659
     38 F         145.5416  132.4451  158.1349 F       1  UNL1       -0.1659
@<TRIPOS>BOND
     1     1     2    2
     2     2    24    1
     3    24    25    1
     4    25    26   am
     5    26    27    2
     6    26    29    1
     7    29    30   ar
     8    30    31   ar
     9    31    32   ar
    10    32    33   ar
    11    33    35    1
    12    35    36    1
    13    35    37    1
    14    35    38    1
    15    33    34   ar
    16     2     3   am
    17     5     3    1
    18     5     6    1
    19     6     7    1
    20     7     8    1
    21    10     8    1
    22    10    11    1
    23    11    12    1
    24    12    13    1
    25    13    14    1
    26    13    18    1
    27    18    19   ar
    28    19    20   ar
    29    20    21   ar
    30    21    22   ar
    31    22    23   ar
    32    13    15    1
    33    15    16    1
    34     8     9    1
    35    34    29   ar
    36     9     5    1
    37    16    10    1
    38    23    18   ar
    39    25    28    1
    40     3     4    1
    41    14    17    1
@<TRIPOS>MOLECULE
*****
 38 41 0 0 0
SMALL
GASTEIGER

@<TRIPOS>ATOM
      1 O         139.6124  141.3006  159.4023 O.2     1  UNL1       -0.2733
      2 C         138.5201  140.3761  158.9523 C.2     1  UNL1        0.2425
      3 N         138.1262  139.2084  159.8074 N.am    1  UNL1       -0.3032
      4 H         137.4094  138.6017  159.5120 H       1  UNL1        0.1495
      5 C         138.8245  138.9650  161.1125 C.3     1  UNL1        0.0889
      6 C         140.0828  138.1714  161.3047 C.3     1  UNL1        0.0383
      7 C         140.4230  138.1884  162.7654 C.3     1  UNL1        0.0738
      8 N         139.3751  138.9927  163.4761 N.3     1  UNL1       -0.2725
      9 C         138.3872  139.4726  162.4545 C.3     1  UNL1        0.0919
     10 C         139.3240  139.2686  164.9497 C.3     1  UNL1        0.0577
     11 C         138.2149  138.6964  165.7818 C.3     1  UNL1        0.0188
     12 C         138.1639  138.9722  167.2553 C.3     1  UNL1        0.0341
     13 C         139.2219  139.8203  167.8967 C.3     1  UNL1        0.1249
     14 O         138.3785  139.5045  169.0963 O.3     1  UNL1       -0.3811
     15 C         140.3310  140.3925  167.0646 C.3     1  UNL1        0.0341
     16 C         140.3821  140.1166  165.5910 C.3     1  UNL1        0.0188
     17 H         137.6324  138.9454  168.8288 H       1  UNL1        0.2107
     18 C         139.9870  140.5587  168.9547 C.ar    1  UNL1        0.1045
     19 C         140.3274  142.0066  168.7614 C.ar    1  UNL1        0.0205
     20 C         141.0925  142.7450  169.8194 C.ar    1  UNL1        0.0239
     21 C         141.5173  142.0353  171.0708 C.ar    1  UNL1        0.1222
     22 N         141.1769  140.5873  171.2641 N.ar    1  UNL1       -0.1466
     23 N         140.4118  139.8490  170.2060 N.ar    1  UNL1       -0.1500
     24 C         137.8218  140.6194  157.6473 C.3     1  UNL1        0.1759
     25 N         136.3239  140.5782  157.5791 N.am    1  UNL1       -0.2931
     26 C         135.6311  140.6587  156.2511 C.2     1  UNL1        0.2462
     27 O         136.4362  140.7806  154.9914 O.2     1  UNL1       -0.2701
     28 H         135.7955  140.4982  158.4059 H       1  UNL1        0.1502
     29 C         134.1332  140.6174  156.1829 C.ar    1  UNL1        0.0533
     30 C         133.4039  141.4713  155.1884 C.ar    1  UNL1        0.0045
     31 C         131.9061  141.4300  155.1202 C.ar    1  UNL1        0.0001
     32 C         131.1375  140.5348  156.0464 C.ar    1  UNL1        0.0039
     33 C         131.8668  139.6809  157.0409 C.ar    1  UNL1        0.0716
     34 C         133.3647  139.7223  157.1091 C.ar    1  UNL1        0.0084
     35 C         131.0982  138.7858  157.9672 C.3     1  UNL1        0.4186
     36 F         130.3297  137.8906  158.8934 F       1  UNL1       -0.1659
     37 F         132.3850  138.3020  158.5673 F       1  UNL1       -0.1659
     38 F         129.8115  139.2695  157.3670 F       1  UNL1       -0.1659
@<TRIPOS>BOND
     1     1     2    2
     2     2    24    1
     3    24    25    1
     4    25    26   am
     5    26    27    2
     6    26    29    1
     7    29    30   ar
     8    30    31   ar
     9    31    32   ar
    10    32    33   ar
    11    33    35    1
    12    35    36    1
    13    35    37    1
    14    35    38    1
    15    33    34   ar
    16     2     3   am
    17     5     3    1
    18     5     6    1
    19     6     7    1
    20     7     8    1
    21    10     8    1
    22    10    11    1
    23    11    12    1
    24    12    13    1
    25    13    14    1
    26    13    18    1
    27    18    19   ar
    28    19    20   ar
    29    20    21   ar
    30    21    22   ar
    31    22    23   ar
    32    13    15    1
    33    15    16    1
    34     8     9    1
    35    34    29   ar
    36     9     5    1
    37    16    10    1
    38    23    18   ar
    39    25    28    1
    40     3     4    1
    41    14    17    1
@<TRIPOS>MOLECULE
*****
 38 41 0 0 0
SMALL
GASTEIGER

@<TRIPOS>ATOM
      1 O         139.6792  140.9069  158.5641 O.2     1  UNL1       -0.2733
      2 C         138.6696  141.9817  158.2893 C.2     1  UNL1        0.2425
      3 N         138.2718  142.9331  159.3786 N.am    1  UNL1       -0.3032
      4 H         137.6091  143.6385  159.1983 H       1  UNL1        0.1495
      5 C         138.8836  142.8097  160.7426 C.3     1  UNL1        0.0889
      6 C         140.0535  143.5941  161.2585 C.3     1  UNL1        0.0383
      7 C         140.3258  143.1494  162.6649 C.3     1  UNL1        0.0738
      8 N         139.3242  142.0902  163.0184 N.3     1  UNL1       -0.2725
      9 C         138.4329  141.8803  161.8303 C.3     1  UNL1        0.0919
     10 C         139.2304  141.3678  164.3296 C.3     1  UNL1        0.0577
     11 C         138.2837  140.2147  164.4845 C.3     1  UNL1        0.0188
     12 C         138.1899  139.4923  165.7957 C.3     1  UNL1        0.0341
     13 C         139.0427  139.9231  166.9521 C.3     1  UNL1        0.1249
     14 O         138.3030  138.7818  167.5849 O.3     1  UNL1       -0.3811
     15 C         139.9894  141.0762  166.7972 C.3     1  UNL1        0.0341
     16 C         140.0832  141.7986  165.4859 C.3     1  UNL1        0.0188
     17 H         137.6951  138.3918  166.9374 H       1  UNL1        0.2107
     18 C         139.6387  139.9575  168.3282 C.ar    1  UNL1        0.1045
     19 C         141.1253  140.0601  168.4993 C.ar    1  UNL1        0.0205
     20 C         141.7213  140.0945  169.8754 C.ar    1  UNL1        0.0239
     21 C         140.8305  140.0263  171.0804 C.ar    1  UNL1        0.1222
     22 N         139.3438  139.9237  170.9092 N.ar    1  UNL1       -0.1466
     23 N         138.7479  139.8893  169.5331 N.ar    1  UNL1       -0.1500
     24 C         138.0578  142.1051  156.9254 C.3     1  UNL1        0.1759
     25 N         136.5684  142.0340  156.7622 N.am    1  UNL1       -0.2931
     26 C         135.9298  140.7803  156.2422 C.2     1  UNL1        0.2462
     27 O         136.7806  139.5976  155.8854 O.2     1  UNL1       -0.2701
     28 H         136.0099  142.8102  156.9964 H       1  UNL1        0.1502
     29 C         134.4403  140.7093  156.0791 C.ar    1  UNL1        0.0533
     30 C         133.7710  141.4606  154.9666 C.ar    1  UNL1        0.0045
     31 C         132.2817  141.3895  154.8035 C.ar    1  UNL1        0.0001
     32 C         131.4616  140.5671  155.7528 C.ar    1  UNL1        0.0039
     33 C         132.1309  139.8158  156.8652 C.ar    1  UNL1        0.0716
     34 C         133.6203  139.8869  157.0283 C.ar    1  UNL1        0.0084
     35 C         131.3108  138.9934  157.8145 C.3     1  UNL1        0.4186
     36 F         130.4908  138.1710  158.7638 F       1  UNL1       -0.1659
     37 F         132.5641  138.3832  158.3686 F       1  UNL1       -0.1659
     38 F         130.0576  139.6035  157.2604 F       1  UNL1       -0.1659
@<TRIPOS>BOND
     1     1     2    2
     2     2    24    1
     3    24    25    1
     4    25    26   am
     5    26    27    2
     6    26    29    1
     7    29    30   ar
     8    30    31   ar
     9    31    32   ar
    10    32    33   ar
    11    33    35    1
    12    35    36    1
    13    35    37    1
    14    35    38    1
    15    33    34   ar
    16     2     3   am
    17     5     3    1
    18     5     6    1
    19     6     7    1
    20     7     8    1
    21    10     8    1
    22    10    11    1
    23    11    12    1
    24    12    13    1
    25    13    14    1
    26    13    18    1
    27    18    19   ar
    28    19    20   ar
    29    20    21   ar
    30    21    22   ar
    31    22    23   ar
    32    13    15    1
    33    15    16    1
    34     8     9    1
    35    34    29   ar
    36     9     5    1
    37    16    10    1
    38    23    18   ar
    39    25    28    1
    40     3     4    1
    41    14    17    1
@<TRIPOS>MOLECULE
*****
 38 41 0 0 0
SMALL
GASTEIGER

@<TRIPOS>ATOM
      1 O         140.3108  139.8445  158.9970 O.2     1  UNL1       -0.2733
      2 C         141.3817  138.8147  158.7911 C.2     1  UNL1        0.2425
      3 N         141.8597  137.9880  159.9478 N.am    1  UNL1       -0.3032
      4 H         142.5626  137.3120  159.8126 H       1  UNL1        0.1495
      5 C         141.2668  138.1911  161.3106 C.3     1  UNL1        0.0889
      6 C         139.8349  137.9593  161.6926 C.3     1  UNL1        0.0383
      7 C         139.6848  138.2867  163.1487 C.3     1  UNL1        0.0738
      8 N         141.0239  138.7209  163.6667 N.3     1  UNL1       -0.2725
      9 C         142.0016  138.6618  162.5307 C.3     1  UNL1        0.0919
     10 C         141.3314  139.1404  165.0736 C.3     1  UNL1        0.0577
     11 C         142.5786  138.6496  165.7470 C.3     1  UNL1        0.0188
     12 C         142.8860  139.0691  167.1539 C.3     1  UNL1        0.0341
     13 C         141.9462  139.9795  167.8874 C.3     1  UNL1        0.1249
     14 O         142.9934  139.7809  168.9429 O.3     1  UNL1       -0.3811
     15 C         140.6990  140.4703  167.2140 C.3     1  UNL1        0.0341
     16 C         140.3916  140.0508  165.8071 C.3     1  UNL1        0.0188
     17 H         143.6884  139.1958  168.6028 H       1  UNL1        0.2107
     18 C         141.3701  140.8209  168.9876 C.ar    1  UNL1        0.1045
     19 C         140.9544  142.2353  168.7107 C.ar    1  UNL1        0.0205
     20 C         140.3783  143.0766  169.8109 C.ar    1  UNL1        0.0239
     21 C         140.2179  142.5036  171.1878 C.ar    1  UNL1        0.1222
     22 N         140.6337  141.0891  171.4645 N.ar    1  UNL1       -0.1466
     23 N         141.2097  140.2478  170.3644 N.ar    1  UNL1       -0.1500
     24 C         141.9747  138.6115  157.4283 C.3     1  UNL1        0.1759
     25 N         142.6020  137.2963  157.0718 N.am    1  UNL1       -0.2931
     26 C         141.8150  136.2723  156.3090 C.2     1  UNL1        0.2462
     27 O         140.4007  136.5633  155.9027 O.2     1  UNL1       -0.2701
     28 H         143.5303  137.1053  157.3385 H       1  UNL1        0.1502
     29 C         142.4423  134.9572  155.9525 C.ar    1  UNL1        0.0533
     30 C         142.1009  134.2913  154.6525 C.ar    1  UNL1        0.0045
     31 C         142.7282  132.9763  154.2960 C.ar    1  UNL1        0.0001
     32 C         143.6969  132.3271  155.2395 C.ar    1  UNL1        0.0039
     33 C         144.0383  132.9930  156.5395 C.ar    1  UNL1        0.0716
     34 C         143.4110  134.3080  156.8960 C.ar    1  UNL1        0.0084
     35 C         145.0070  132.3438  157.4831 C.3     1  UNL1        0.4186
     36 F         145.9756  131.6946  158.4266 F       1  UNL1       -0.1659
     37 F         145.3442  131.3245  156.4355 F       1  UNL1       -0.1659
     38 F         144.6697  133.3631  158.5306 F       1  UNL1       -0.1659
@<TRIPOS>BOND
     1     1     2    2
     2     2    24    1
     3    24    25    1
     4    25    26   am
     5    26    27    2
     6    26    29    1
     7    29    30   ar
     8    30    31   ar
     9    31    32   ar
    10    32    33   ar
    11    33    35    1
    12    35    36    1
    13    35    37    1
    14    35    38    1
    15    33    34   ar
    16     2     3   am
    17     5     3    1
    18     5     6    1
    19     6     7    1
    20     7     8    1
    21    10     8    1
    22    10    11    1
    23    11    12    1
    24    12    13    1
    25    13    14    1
    26    13    18    1
    27    18    19   ar
    28    19    20   ar
    29    20    21   ar
    30    21    22   ar
    31    22    23   ar
    32    13    15    1
    33    15    16    1
    34     8     9    1
    35    34    29   ar
    36     9     5    1
    37    16    10    1
    38    23    18   ar
    39    25    28    1
    40     3     4    1
    41    14    17    1
@<TRIPOS>MOLECULE
*****
 38 41 0 0 0
SMALL
GASTEIGER

@<TRIPOS>ATOM
      1 O         138.3786  140.4442  159.2613 O.2     1  UNL1       -0.2733
      2 C         139.2796  139.3946  158.6812 C.2     1  UNL1        0.2425
      3 N         139.9248  138.3806  159.5787 N.am    1  UNL1       -0.3032
      4 H         140.5162  137.6917  159.1980 H       1  UNL1        0.1495
      5 C         139.6689  138.4161  161.0564 C.3     1  UNL1        0.0889
      6 C         138.3778  138.0684  161.7362 C.3     1  UNL1        0.0383
      7 C         138.5701  138.2430  163.2135 C.3     1  UNL1        0.0738
      8 N         139.9801  138.6987  163.4468 N.3     1  UNL1       -0.2725
      9 C         140.6591  138.8056  162.1136 C.3     1  UNL1        0.0919
     10 C         140.6018  138.9952  164.7792 C.3     1  UNL1        0.0577
     11 C         141.9995  138.5370  165.0733 C.3     1  UNL1        0.0188
     12 C         142.6213  138.8336  166.4058 C.3     1  UNL1        0.0341
     13 C         141.8453  139.5884  167.4441 C.3     1  UNL1        0.1249
     14 O         143.1283  139.3654  168.1886 O.3     1  UNL1       -0.3811
     15 C         140.4476  140.0466  167.1501 C.3     1  UNL1        0.0341
     16 C         139.8259  139.7500  165.8176 C.3     1  UNL1        0.0188
     17 H         143.7473  138.8741  167.6262 H       1  UNL1        0.2107
     18 C         141.5149  140.2658  168.7411 C.ar    1  UNL1        0.1045
     19 C         142.3489  141.4169  169.2197 C.ar    1  UNL1        0.0205
     20 C         142.0185  142.0943  170.5167 C.ar    1  UNL1        0.0239
     21 C         140.8541  141.6204  171.3350 C.ar    1  UNL1        0.1222
     22 N         140.0201  140.4691  170.8563 N.ar    1  UNL1       -0.1466
     23 N         140.3505  139.7918  169.5593 N.ar    1  UNL1       -0.1500
     24 C         139.5356  139.3590  157.2037 C.3     1  UNL1        0.1759
     25 N         140.4595  138.3274  156.6271 N.am    1  UNL1       -0.2931
     26 C         139.8987  137.1367  155.9076 C.2     1  UNL1        0.2462
     27 O         138.4140  136.9775  155.7646 O.2     1  UNL1       -0.2701
     28 H         141.4339  138.4319  156.7210 H       1  UNL1        0.1502
     29 C         140.8226  136.1051  155.3311 C.ar    1  UNL1        0.0533
     30 C         140.7206  135.7334  153.8815 C.ar    1  UNL1        0.0045
     31 C         141.6445  134.7019  153.3050 C.ar    1  UNL1        0.0001
     32 C         142.6703  134.0421  154.1782 C.ar    1  UNL1        0.0039
     33 C         142.7723  134.4138  155.6277 C.ar    1  UNL1        0.0716
     34 C         141.8484  135.4453  156.2042 C.ar    1  UNL1        0.0084
     35 C         143.7981  133.7540  156.5009 C.3     1  UNL1        0.4186
     36 F         144.8239  133.0942  157.3740 F       1  UNL1       -0.1659
     37 F         143.4448  134.6870  157.6210 F       1  UNL1       -0.1659
     38 F         144.1514  132.8210  155.3808 F       1  UNL1       -0.1659
@<TRIPOS>BOND
     1     1     2    2
     2     2    24    1
     3    24    25    1
     4    25    26   am
     5    26    27    2
     6    26    29    1
     7    29    30   ar
     8    30    31   ar
     9    31    32   ar
    10    32    33   ar
    11    33    35    1
    12    35    36    1
    13    35    37    1
    14    35    38    1
    15    33    34   ar
    16     2     3   am
    17     5     3    1
    18     5     6    1
    19     6     7    1
    20     7     8    1
    21    10     8    1
    22    10    11    1
    23    11    12    1
    24    12    13    1
    25    13    14    1
    26    13    18    1
    27    18    19   ar
    28    19    20   ar
    29    20    21   ar
    30    21    22   ar
    31    22    23   ar
    32    13    15    1
    33    15    16    1
    34     8     9    1
    35    34    29   ar
    36     9     5    1
    37    16    10    1
    38    23    18   ar
    39    25    28    1
    40     3     4    1
    41    14    17    1
@<TRIPOS>MOLECULE
*****
 38 41 0 0 0
SMALL
GASTEIGER

@<TRIPOS>ATOM
      1 O         142.2665  139.5382  158.6912 O.2     1  UNL1       -0.2733
      2 C         142.5422  138.0741  158.5165 C.2     1  UNL1        0.2425
      3 N         142.8739  137.2259  159.7083 N.am    1  UNL1       -0.3032
      4 H         143.0548  136.2650  159.5936 H       1  UNL1        0.1495
      5 C         142.9299  137.8418  161.0750 C.3     1  UNL1        0.0889
      6 C         144.1421  138.4434  161.7219 C.3     1  UNL1        0.0383
      7 C         143.7448  138.9376  163.0814 C.3     1  UNL1        0.0738
      8 N         142.2871  138.6413  163.2746 N.3     1  UNL1       -0.2725
      9 C         141.7834  137.9641  162.0345 C.3     1  UNL1        0.0919
     10 C         141.4755  138.9654  164.4937 C.3     1  UNL1        0.0577
     11 C         140.1453  138.3057  164.7064 C.3     1  UNL1        0.0188
     12 C         139.3338  138.6298  165.9255 C.3     1  UNL1        0.0341
     13 C         139.8525  139.6136  166.9320 C.3     1  UNL1        0.1249
     14 O         138.5446  139.2519  167.5713 O.3     1  UNL1       -0.3811
     15 C         141.1827  140.2734  166.7194 C.3     1  UNL1        0.0341
     16 C         141.9942  139.9493  165.5002 C.3     1  UNL1        0.0188
     17 H         138.0822  138.6037  167.0173 H       1  UNL1        0.2107
     18 C         139.9169  140.4719  168.1606 C.ar    1  UNL1        0.1045
     19 C         140.3484  141.9044  168.0529 C.ar    1  UNL1        0.0205
     20 C         140.4128  142.7626  169.2815 C.ar    1  UNL1        0.0239
     21 C         140.0458  142.1882  170.6177 C.ar    1  UNL1        0.1222
     22 N         139.6143  140.7556  170.7253 N.ar    1  UNL1       -0.1466
     23 N         139.5499  139.8975  169.4967 N.ar    1  UNL1       -0.1500
     24 C         142.4862  137.4583  157.1499 C.3     1  UNL1        0.1759
     25 N         142.9428  136.0441  156.9453 N.am    1  UNL1       -0.2931
     26 C         142.4369  135.2547  155.7744 C.2     1  UNL1        0.2462
     27 O         141.4746  135.8794  154.8082 O.2     1  UNL1       -0.2701
     28 H         143.5744  135.6341  157.5795 H       1  UNL1        0.1502
     29 C         142.8935  133.8405  155.5698 C.ar    1  UNL1        0.0533
     30 C         142.6774  133.1666  154.2473 C.ar    1  UNL1        0.0045
     31 C         143.1339  131.7525  154.0427 C.ar    1  UNL1        0.0001
     32 C         143.8065  131.0124  155.1606 C.ar    1  UNL1        0.0039
     33 C         144.0226  131.6863  156.4831 C.ar    1  UNL1        0.0716
     34 C         143.5661  133.1004  156.6877 C.ar    1  UNL1        0.0084
     35 C         144.6953  130.9462  157.6011 C.3     1  UNL1        0.4186
     36 F         145.3679  130.2060  158.7190 F       1  UNL1       -0.1659
     37 F         145.7871  131.9744  157.6248 F       1  UNL1       -0.1659
     38 F         143.6034  129.9179  157.5773 F       1  UNL1       -0.1659
@<TRIPOS>BOND
     1     1     2    2
     2     2    24    1
     3    24    25    1
     4    25    26   am
     5    26    27    2
     6    26    29    1
     7    29    30   ar
     8    30    31   ar
     9    31    32   ar
    10    32    33   ar
    11    33    35    1
    12    35    36    1
    13    35    37    1
    14    35    38    1
    15    33    34   ar
    16     2     3   am
    17     5     3    1
    18     5     6    1
    19     6     7    1
    20     7     8    1
    21    10     8    1
    22    10    11    1
    23    11    12    1
    24    12    13    1
    25    13    14    1
    26    13    18    1
    27    18    19   ar
    28    19    20   ar
    29    20    21   ar
    30    21    22   ar
    31    22    23   ar
    32    13    15    1
    33    15    16    1
    34     8     9    1
    35    34    29   ar
    36     9     5    1
    37    16    10    1
    38    23    18   ar
    39    25    28    1
    40     3     4    1
    41    14    17    1
@<TRIPOS>MOLECULE
*****
 38 41 0 0 0
SMALL
GASTEIGER

@<TRIPOS>ATOM
      1 O         137.8084  141.9973  160.8340 O.2     1  UNL1       -0.2733
      2 C         138.7946  141.4070  159.8701 C.2     1  UNL1        0.2425
      3 N         139.5473  140.1621  160.2355 N.am    1  UNL1       -0.3032
      4 H         140.1945  139.7747  159.6029 H       1  UNL1        0.1495
      5 C         139.3138  139.5073  161.5647 C.3     1  UNL1        0.0889
      6 C         138.8979  138.0831  161.7851 C.3     1  UNL1        0.0383
      7 C         138.7823  137.8575  163.2636 C.3     1  UNL1        0.0738
      8 N         139.1267  139.1423  163.9569 N.3     1  UNL1       -0.2725
      9 C         139.4551  140.1619  162.9070 C.3     1  UNL1        0.0919
     10 C         139.1402  139.3678  165.4398 C.3     1  UNL1        0.0577
     11 C         137.9815  138.9150  166.2778 C.3     1  UNL1        0.0188
     12 C         137.9950  139.1405  167.7607 C.3     1  UNL1        0.0341
     13 C         139.1673  139.8189  168.4055 C.3     1  UNL1        0.1249
     14 O         138.3125  139.5718  169.6132 O.3     1  UNL1       -0.3811
     15 C         140.3260  140.2717  167.5675 C.3     1  UNL1        0.0341
     16 C         140.3124  140.0461  166.0846 C.3     1  UNL1        0.0188
     17 H         137.4945  139.1252  169.3445 H       1  UNL1        0.2107
     18 C         140.0426  140.4114  169.4698 C.ar    1  UNL1        0.1045
     19 C         141.4770  139.9875  169.5830 C.ar    1  UNL1        0.0205
     20 C         142.3524  140.5801  170.6473 C.ar    1  UNL1        0.0239
     21 C         141.7933  141.5965  171.5983 C.ar    1  UNL1        0.1222
     22 N         140.3589  142.0203  171.4850 N.ar    1  UNL1       -0.1466
     23 N         139.4836  141.4278  170.4207 N.ar    1  UNL1       -0.1500
     24 C         139.0281  142.0617  158.5409 C.3     1  UNL1        0.1759
     25 N         137.9149  142.1425  157.5387 N.am    1  UNL1       -0.2931
     26 C         137.5830  140.9519  156.6889 C.2     1  UNL1        0.2462
     27 O         138.3642  139.6805  156.8412 O.2     1  UNL1       -0.2701
     28 H         137.4021  142.9769  157.4388 H       1  UNL1        0.1502
     29 C         136.4698  141.0326  155.6867 C.ar    1  UNL1        0.0533
     30 C         136.7838  141.1370  154.2237 C.ar    1  UNL1        0.0045
     31 C         135.6706  141.2178  153.2216 C.ar    1  UNL1        0.0001
     32 C         134.2434  141.1941  153.6825 C.ar    1  UNL1        0.0039
     33 C         133.9293  141.0897  155.1455 C.ar    1  UNL1        0.0716
     34 C         135.0425  141.0090  156.1476 C.ar    1  UNL1        0.0084
     35 C         132.5021  141.0661  155.6064 C.3     1  UNL1        0.4186
     36 F         131.0749  141.0424  156.0673 F       1  UNL1       -0.1659
     37 F         132.0788  141.7300  154.3297 F       1  UNL1       -0.1659
     38 F         132.9254  140.4021  156.8831 F       1  UNL1       -0.1659
@<TRIPOS>BOND
     1     1     2    2
     2     2    24    1
     3    24    25    1
     4    25    26   am
     5    26    27    2
     6    26    29    1
     7    29    30   ar
     8    30    31   ar
     9    31    32   ar
    10    32    33   ar
    11    33    35    1
    12    35    36    1
    13    35    37    1
    14    35    38    1
    15    33    34   ar
    16     2     3   am
    17     5     3    1
    18     5     6    1
    19     6     7    1
    20     7     8    1
    21    10     8    1
    22    10    11    1
    23    11    12    1
    24    12    13    1
    25    13    14    1
    26    13    18    1
    27    18    19   ar
    28    19    20   ar
    29    20    21   ar
    30    21    22   ar
    31    22    23   ar
    32    13    15    1
    33    15    16    1
    34     8     9    1
    35    34    29   ar
    36     9     5    1
    37    16    10    1
    38    23    18   ar
    39    25    28    1
    40     3     4    1
    41    14    17    1
@<TRIPOS>MOLECULE
*****
 38 41 0 0 0
SMALL
GASTEIGER

@<TRIPOS>ATOM
      1 O         138.5367  136.9103  155.8443 O.2     1  UNL1       -0.2733
      2 C         139.0495  137.5752  154.6014 C.2     1  UNL1        0.2425
      3 N         138.4301  138.8558  154.1258 N.am    1  UNL1       -0.3032
      4 H         138.7666  139.2922  153.3100 H       1  UNL1        0.1495
      5 C         137.2979  139.4717  154.8933 C.3     1  UNL1        0.0889
      6 C         137.4020  140.6295  155.8412 C.3     1  UNL1        0.0383
      7 C         136.0313  140.9111  156.3812 C.3     1  UNL1        0.0738
      8 N         135.0799  139.9274  155.7671 N.3     1  UNL1       -0.2725
      9 C         135.8627  139.0377  154.8475 C.3     1  UNL1        0.0919
     10 C         133.6047  139.8473  156.0269 C.3     1  UNL1        0.0577
     11 C         132.7195  141.0100  155.6886 C.3     1  UNL1        0.0188
     12 C         131.2443  140.9299  155.9484 C.3     1  UNL1        0.0341
     13 C         130.6545  139.6872  156.5466 C.3     1  UNL1        0.1249
     14 O         129.4148  140.5186  156.3981 O.3     1  UNL1       -0.3811
     15 C         131.5398  138.5246  156.8849 C.3     1  UNL1        0.0341
     16 C         133.0149  138.6046  156.6251 C.3     1  UNL1        0.0188
     17 H         129.6460  141.3777  156.0117 H       1  UNL1        0.2107
     18 C         129.6340  138.7332  157.0932 C.ar    1  UNL1        0.1045
     19 C         128.4985  138.2729  156.2280 C.ar    1  UNL1        0.0205
     20 C         127.4781  137.3189  156.7746 C.ar    1  UNL1        0.0239
     21 C         127.5933  136.8253  158.1864 C.ar    1  UNL1        0.1222
     22 N         128.7289  137.2858  159.0516 N.ar    1  UNL1       -0.1466
     23 N         129.7493  138.2397  158.5049 N.ar    1  UNL1       -0.1500
     24 C         140.1817  136.9594  153.8339 C.3     1  UNL1        0.1759
     25 N         140.6606  135.5808  154.1807 N.am    1  UNL1       -0.2931
     26 C         141.5573  135.3741  155.3652 C.2     1  UNL1        0.2462
     27 O         141.9752  136.5460  156.2030 O.2     1  UNL1       -0.2701
     28 H         140.3863  134.8116  153.6307 H       1  UNL1        0.1502
     29 C         142.0362  133.9955  155.7119 C.ar    1  UNL1        0.0533
     30 C         141.3014  132.7942  155.1952 C.ar    1  UNL1        0.0045
     31 C         141.7804  131.4157  155.5419 C.ar    1  UNL1        0.0001
     32 C         142.9941  131.2385  156.4053 C.ar    1  UNL1        0.0039
     33 C         143.7288  132.4397  156.9220 C.ar    1  UNL1        0.0716
     34 C         143.2499  133.8182  156.5753 C.ar    1  UNL1        0.0084
     35 C         144.9425  132.2624  157.7855 C.3     1  UNL1        0.4186
     36 F         146.1562  132.0852  158.6489 F       1  UNL1       -0.1659
     37 F         145.1989  130.9276  157.1510 F       1  UNL1       -0.1659
     38 F         144.6862  133.5973  158.4199 F       1  UNL1       -0.1659
@<TRIPOS>BOND
     1     1     2    2
     2     2    24    1
     3    24    25    1
     4    25    26   am
     5    26    27    2
     6    26    29    1
     7    29    30   ar
     8    30    31   ar
     9    31    32   ar
    10    32    33   ar
    11    33    35    1
    12    35    36    1
    13    35    37    1
    14    35    38    1
    15    33    34   ar
    16     2     3   am
    17     5     3    1
    18     5     6    1
    19     6     7    1
    20     7     8    1
    21    10     8    1
    22    10    11    1
    23    11    12    1
    24    12    13    1
    25    13    14    1
    26    13    18    1
    27    18    19   ar
    28    19    20   ar
    29    20    21   ar
    30    21    22   ar
    31    22    23   ar
    32    13    15    1
    33    15    16    1
    34     8     9    1
    35    34    29   ar
    36     9     5    1
    37    16    10    1
    38    23    18   ar
    39    25    28    1
    40     3     4    1
    41    14    17    1
