@<TRIPOS>MOLECULE
*****
 30 34 0 0 0
SMALL
GASTEIGER

@<TRIPOS>ATOM
      1 O         138.5280  139.0590  165.9003 O.2     1  UNL1       -0.2699
      2 C         139.6679  139.9839  166.2090 C.2     1  UNL1        0.2490
      3 N         140.1559  140.9464  165.1671 N.am    1  UNL1       -0.2761
      4 C         139.5041  140.9840  163.8167 C.3     1  UNL1        0.0938
      5 C         139.9921  141.9465  162.7749 C.3     1  UNL1        0.0233
      6 C         141.1320  142.8714  163.0835 C.3     1  UNL1        0.0233
      7 C         141.7838  142.8338  164.4339 C.3     1  UNL1        0.0233
      8 C         141.2958  141.8714  165.4757 C.3     1  UNL1        0.0938
      9 C         142.2557  143.8516  163.2460 C.3     1  UNL1        0.0233
     10 C         142.4002  144.6088  161.9591 C.3     1  UNL1        0.0950
     11 N         141.3657  144.0964  161.0013 N.am    1  UNL1       -0.2640
     12 C         141.1525  144.5739  159.5955 C.2     1  UNL1        0.3072
     13 O         142.0191  145.6616  159.0333 O.2     1  UNL1       -0.2523
     14 N         140.0728  143.9638  158.7517 N.am    1  UNL1       -0.2612
     15 C         139.2062  142.8762  159.3138 C.3     1  UNL1        0.1123
     16 C         138.1264  142.2661  158.4701 C.3     1  UNL1        0.0939
     17 N         137.9132  142.7436  157.0643 N.3     1  UNL1       -0.2711
     18 C         138.7798  143.8313  156.5022 C.3     1  UNL1        0.0939
     19 C         139.8596  144.4414  157.3459 C.3     1  UNL1        0.1123
     20 C         140.5820  143.0227  161.6961 C.3     1  UNL1        0.0950
     21 C         140.3197  139.9463  167.5594 C.ar    1  UNL1        0.0536
     22 C         141.7624  139.5554  167.6852 C.ar    1  UNL1        0.0045
     23 C         142.4142  139.5179  169.0357 C.ar    1  UNL1        0.0001
     24 C         141.6234  139.8712  170.2603 C.ar    1  UNL1        0.0000
     25 C         140.1807  140.2621  170.1345 C.ar    1  UNL1        0.0001
     26 C         139.5289  140.2997  168.7840 C.ar    1  UNL1        0.0045
     27 C         136.8334  142.1335  156.2205 C.3     1  UNL1        0.0576
     28 C         136.2056  142.4646  154.8991 C.3     1  UNL1        0.0160
     29 C         135.3064  141.2708  155.0272 C.3     1  UNL1        0.0028
     30 C         135.9343  140.9398  156.3487 C.3     1  UNL1        0.0160
@<TRIPOS>BOND
     1     1     2    2
     2     2    21    1
     3    21    22   ar
     4    22    23   ar
     5    23    24   ar
     6    24    25   ar
     7    25    26   ar
     8     2     3   am
     9     3     4    1
    10     4     5    1
    11     5     6    1
    12     6     7    1
    13     7     8    1
    14     6     9    1
    15     9    10    1
    16    10    11    1
    17    11    12   am
    18    12    13    2
    19    12    14   am
    20    14    15    1
    21    15    16    1
    22    16    17    1
    23    17    27    1
    24    27    28    1
    25    28    29    1
    26    29    30    1
    27    17    18    1
    28    18    19    1
    29    11    20    1
    30    26    21   ar
    31     8     3    1
    32    19    14    1
    33    20     6    1
    34    30    27    1
@<TRIPOS>MOLECULE
*****
 30 34 0 0 0
SMALL
GASTEIGER

@<TRIPOS>ATOM
      1 O         143.2156  139.5985  166.7815 O.2     1  UNL1       -0.2699
      2 C         142.1487  140.5856  167.1519 C.2     1  UNL1        0.2490
      3 N         141.6371  141.5562  166.1289 N.am    1  UNL1       -0.2761
      4 C         142.1925  141.5396  164.7357 C.3     1  UNL1        0.0938
      5 C         141.6809  142.5102  163.7128 C.3     1  UNL1        0.0233
      6 C         140.6140  143.4973  164.0832 C.3     1  UNL1        0.0233
      7 C         140.0586  143.5139  165.4765 C.3     1  UNL1        0.0233
      8 C         140.5702  142.5434  166.4994 C.3     1  UNL1        0.0938
      9 C         139.5555  144.5367  164.3058 C.3     1  UNL1        0.0233
     10 C         139.3584  145.2807  163.0182 C.3     1  UNL1        0.0950
     11 N         140.2951  144.7012  161.9999 N.am    1  UNL1       -0.2640
     12 C         140.4318  145.1457  160.5739 C.2     1  UNL1        0.3072
     13 O         139.5835  146.2681  160.0536 O.2     1  UNL1       -0.2523
     14 N         141.4167  144.4679  159.6682 N.am    1  UNL1       -0.2612
     15 C         142.2650  143.3456  160.1884 C.3     1  UNL1        0.1123
     16 C         143.2500  142.6678  159.2826 C.3     1  UNL1        0.0939
     17 N         143.3866  143.1124  157.8566 N.3     1  UNL1       -0.2711
     18 C         142.5384  144.2347  157.3363 C.3     1  UNL1        0.0939
     19 C         141.5534  144.9125  158.2421 C.3     1  UNL1        0.1123
     20 C         141.0710  143.5990  162.6581 C.3     1  UNL1        0.0950
     21 C         141.5933  140.6022  168.5452 C.ar    1  UNL1        0.0536
     22 C         142.4683  141.0002  169.6967 C.ar    1  UNL1        0.0045
     23 C         141.9129  141.0168  171.0900 C.ar    1  UNL1        0.0001
     24 C         140.4825  140.6354  171.3318 C.ar    1  UNL1        0.0000
     25 C         139.6075  140.2375  170.1803 C.ar    1  UNL1        0.0001
     26 C         140.1628  140.2209  168.7870 C.ar    1  UNL1        0.0045
     27 C         144.3717  142.4346  156.9507 C.3     1  UNL1        0.0576
     28 C         144.3057  141.8150  155.5863 C.3     1  UNL1        0.0160
     29 C         145.7645  141.4761  155.6697 C.3     1  UNL1        0.0028
     30 C         145.8304  142.0957  157.0341 C.3     1  UNL1        0.0160
@<TRIPOS>BOND
     1     1     2    2
     2     2    21    1
     3    21    22   ar
     4    22    23   ar
     5    23    24   ar
     6    24    25   ar
     7    25    26   ar
     8     2     3   am
     9     3     4    1
    10     4     5    1
    11     5     6    1
    12     6     7    1
    13     7     8    1
    14     6     9    1
    15     9    10    1
    16    10    11    1
    17    11    12   am
    18    12    13    2
    19    12    14   am
    20    14    15    1
    21    15    16    1
    22    16    17    1
    23    17    27    1
    24    27    28    1
    25    28    29    1
    26    29    30    1
    27    17    18    1
    28    18    19    1
    29    11    20    1
    30    26    21   ar
    31     8     3    1
    32    19    14    1
    33    20     6    1
    34    30    27    1
@<TRIPOS>MOLECULE
*****
 30 34 0 0 0
SMALL
GASTEIGER

@<TRIPOS>ATOM
      1 O         142.1978  139.1573  166.6517 O.2     1  UNL1       -0.2699
      2 C         141.1558  140.2336  166.5758 C.2     1  UNL1        0.2490
      3 N         140.5761  140.6240  165.2485 N.am    1  UNL1       -0.2761
      4 C         141.0384  139.9380  163.9972 C.3     1  UNL1        0.0938
      5 C         140.4587  140.3284  162.6701 C.3     1  UNL1        0.0233
      6 C         139.4168  141.4048  162.5941 C.3     1  UNL1        0.0233
      7 C         138.9545  142.0908  163.8454 C.3     1  UNL1        0.0233
      8 C         139.5342  141.7004  165.1726 C.3     1  UNL1        0.0938
      9 C         138.3734  142.4574  162.3630 C.3     1  UNL1        0.0233
     10 C         138.0904  142.5143  160.8909 C.3     1  UNL1        0.0950
     11 N         138.9589  141.4968  160.2123 N.am    1  UNL1       -0.2640
     12 C         139.0004  141.2145  158.7398 C.2     1  UNL1        0.3072
     13 O         138.1176  141.9850  157.8033 O.2     1  UNL1       -0.2523
     14 N         139.9247  140.1618  158.2036 N.am    1  UNL1       -0.2612
     15 C         140.8075  139.3913  159.1401 C.3     1  UNL1        0.1123
     16 C         141.7317  138.3386  158.6039 C.3     1  UNL1        0.0939
     17 N         141.7732  138.0563  157.1314 N.3     1  UNL1       -0.2711
     18 C         140.8904  138.8268  156.1949 C.3     1  UNL1        0.0939
     19 C         139.9662  139.8795  156.7310 C.3     1  UNL1        0.1123
     20 C         139.7786  140.8111  161.2649 C.3     1  UNL1        0.0950
     21 C         140.6936  140.9196  167.8271 C.ar    1  UNL1        0.0536
     22 C         139.6998  140.2476  168.7275 C.ar    1  UNL1        0.0045
     23 C         139.2376  140.9336  169.9788 C.ar    1  UNL1        0.0001
     24 C         139.7691  142.2917  170.3296 C.ar    1  UNL1        0.0000
     25 C         140.7629  142.9637  169.4292 C.ar    1  UNL1        0.0001
     26 C         141.2251  142.2778  168.1780 C.ar    1  UNL1        0.0045
     27 C         142.6976  137.0035  156.5951 C.3     1  UNL1        0.0576
     28 C         143.7987  136.9778  155.5770 C.3     1  UNL1        0.0160
     29 C         144.0047  135.5148  155.8368 C.3     1  UNL1        0.0028
     30 C         142.9035  135.5407  156.8550 C.3     1  UNL1        0.0160
@<TRIPOS>BOND
     1     1     2    2
     2     2    21    1
     3    21    22   ar
     4    22    23   ar
     5    23    24   ar
     6    24    25   ar
     7    25    26   ar
     8     2     3   am
     9     3     4    1
    10     4     5    1
    11     5     6    1
    12     6     7    1
    13     7     8    1
    14     6     9    1
    15     9    10    1
    16    10    11    1
    17    11    12   am
    18    12    13    2
    19    12    14   am
    20    14    15    1
    21    15    16    1
    22    16    17    1
    23    17    27    1
    24    27    28    1
    25    28    29    1
    26    29    30    1
    27    17    18    1
    28    18    19    1
    29    11    20    1
    30    26    21   ar
    31     8     3    1
    32    19    14    1
    33    20     6    1
    34    30    27    1
@<TRIPOS>MOLECULE
*****
 30 34 0 0 0
SMALL
GASTEIGER

@<TRIPOS>ATOM
      1 O         141.0204  139.1043  166.3847 O.2     1  UNL1       -0.2699
      2 C         141.6155  140.4770  166.2776 C.2     1  UNL1        0.2490
      3 N         142.1827  140.9487  164.9715 N.am    1  UNL1       -0.2761
      4 C         142.1547  140.0478  163.7726 C.3     1  UNL1        0.0938
      5 C         142.7219  140.5195  162.4665 C.3     1  UNL1        0.0233
      6 C         143.3170  141.8923  162.3594 C.3     1  UNL1        0.0233
      7 C         143.3449  142.7932  163.5583 C.3     1  UNL1        0.0233
      8 C         142.7778  142.3215  164.8644 C.3     1  UNL1        0.0938
      9 C         143.9414  143.2316  162.1017 C.3     1  UNL1        0.0233
     10 C         144.3696  143.2746  160.6647 C.3     1  UNL1        0.0950
     11 N         144.0099  141.9618  160.0343 N.am    1  UNL1       -0.2640
     12 C         144.2573  141.5719  158.6073 C.2     1  UNL1        0.3072
     13 O         144.9217  142.5368  157.6705 O.2     1  UNL1       -0.2523
     14 N         143.8402  140.2171  158.1169 N.am    1  UNL1       -0.2612
     15 C         143.1758  139.2522  159.0536 C.3     1  UNL1        0.1123
     16 C         142.7588  137.8974  158.5632 C.3     1  UNL1        0.0939
     17 N         143.0062  137.5074  157.1361 N.3     1  UNL1       -0.2711
     18 C         143.6706  138.4723  156.1993 C.3     1  UNL1        0.0939
     19 C         144.0876  139.8271  156.6897 C.3     1  UNL1        0.1123
     20 C         143.3593  141.1075  161.0817 C.3     1  UNL1        0.0950
     21 C         141.6435  141.3780  167.4765 C.ar    1  UNL1        0.0536
     22 C         140.4555  142.2354  167.7982 C.ar    1  UNL1        0.0045
     23 C         140.4835  143.1364  168.9972 C.ar    1  UNL1        0.0001
     24 C         141.6995  143.1799  169.8744 C.ar    1  UNL1        0.0000
     25 C         142.8874  142.3225  169.5527 C.ar    1  UNL1        0.0001
     26 C         142.8595  141.4215  168.3538 C.ar    1  UNL1        0.0045
     27 C         142.5891  136.1525  156.6456 C.3     1  UNL1        0.0576
     28 C         141.4802  135.6332  155.7794 C.3     1  UNL1        0.0160
     29 C         141.9993  134.2365  155.9520 C.3     1  UNL1        0.0028
     30 C         143.1083  134.7559  156.8183 C.3     1  UNL1        0.0160
@<TRIPOS>BOND
     1     1     2    2
     2     2    21    1
     3    21    22   ar
     4    22    23   ar
     5    23    24   ar
     6    24    25   ar
     7    25    26   ar
     8     2     3   am
     9     3     4    1
    10     4     5    1
    11     5     6    1
    12     6     7    1
    13     7     8    1
    14     6     9    1
    15     9    10    1
    16    10    11    1
    17    11    12   am
    18    12    13    2
    19    12    14   am
    20    14    15    1
    21    15    16    1
    22    16    17    1
    23    17    27    1
    24    27    28    1
    25    28    29    1
    26    29    30    1
    27    17    18    1
    28    18    19    1
    29    11    20    1
    30    26    21   ar
    31     8     3    1
    32    19    14    1
    33    20     6    1
    34    30    27    1
@<TRIPOS>MOLECULE
*****
 30 34 0 0 0
SMALL
GASTEIGER

@<TRIPOS>ATOM
      1 O         139.6049  142.1065  166.1192 O.2     1  UNL1       -0.2699
      2 C         140.8530  141.2751  166.1505 C.2     1  UNL1        0.2490
      3 N         141.3184  140.5738  164.9088 N.am    1  UNL1       -0.2761
      4 C         140.5356  140.7038  163.6360 C.3     1  UNL1        0.0938
      5 C         141.0009  140.0025  162.3944 C.3     1  UNL1        0.0233
      6 C         142.2491  139.1711  162.4257 C.3     1  UNL1        0.0233
      7 C         143.0319  139.0412  163.6986 C.3     1  UNL1        0.0233
      8 C         142.5666  139.7425  164.9401 C.3     1  UNL1        0.0938
      9 C         143.4713  138.3099  162.3051 C.3     1  UNL1        0.0233
     10 C         143.5515  137.8144  160.8915 C.3     1  UNL1        0.0950
     11 N         142.3789  138.3694  160.1385 N.am    1  UNL1       -0.2640
     12 C         142.0661  138.1282  158.6915 C.2     1  UNL1        0.3072
     13 O         142.9681  137.2618  157.8635 O.2     1  UNL1       -0.2523
     14 N         140.8513  138.7535  158.0724 N.am    1  UNL1       -0.2612
     15 C         139.9493  139.6199  158.9004 C.3     1  UNL1        0.1123
     16 C         138.7344  140.2452  158.2813 C.3     1  UNL1        0.0939
     17 N         138.4217  140.0040  156.8343 N.3     1  UNL1       -0.2711
     18 C         139.3237  139.1376  156.0063 C.3     1  UNL1        0.0939
     19 C         140.5385  138.5123  156.6254 C.3     1  UNL1        0.1123
     20 C         141.5740  139.2079  161.0867 C.3     1  UNL1        0.0950
     21 C         141.6359  141.1452  167.4234 C.ar    1  UNL1        0.0536
     22 C         142.5674  142.2422  167.8463 C.ar    1  UNL1        0.0045
     23 C         143.3502  142.1121  169.1193 C.ar    1  UNL1        0.0001
     24 C         143.2015  140.8851  169.9692 C.ar    1  UNL1        0.0000
     25 C         142.2700  139.7881  169.5462 C.ar    1  UNL1        0.0001
     26 C         141.4872  139.9181  168.2733 C.ar    1  UNL1        0.0045
     27 C         137.2068  140.6293  156.2151 C.3     1  UNL1        0.0576
     28 C         136.6177  142.0086  156.1944 C.3     1  UNL1        0.0160
     29 C         135.4888  141.5136  155.3396 C.3     1  UNL1        0.0028
     30 C         136.0780  140.1343  155.3604 C.3     1  UNL1        0.0160
@<TRIPOS>BOND
     1     1     2    2
     2     2    21    1
     3    21    22   ar
     4    22    23   ar
     5    23    24   ar
     6    24    25   ar
     7    25    26   ar
     8     2     3   am
     9     3     4    1
    10     4     5    1
    11     5     6    1
    12     6     7    1
    13     7     8    1
    14     6     9    1
    15     9    10    1
    16    10    11    1
    17    11    12   am
    18    12    13    2
    19    12    14   am
    20    14    15    1
    21    15    16    1
    22    16    17    1
    23    17    27    1
    24    27    28    1
    25    28    29    1
    26    29    30    1
    27    17    18    1
    28    18    19    1
    29    11    20    1
    30    26    21   ar
    31     8     3    1
    32    19    14    1
    33    20     6    1
    34    30    27    1
@<TRIPOS>MOLECULE
*****
 30 34 0 0 0
SMALL
GASTEIGER

@<TRIPOS>ATOM
      1 O         142.3459  139.2411  166.5953 O.2     1  UNL1       -0.2699
      2 C         142.1367  140.7182  166.4396 C.2     1  UNL1        0.2490
      3 N         142.1357  141.3356  165.0725 N.am    1  UNL1       -0.2761
      4 C         142.3440  140.4759  163.8612 C.3     1  UNL1        0.0938
      5 C         142.3430  141.0933  162.4942 C.3     1  UNL1        0.0233
      6 C         142.1338  142.5704  162.3385 C.3     1  UNL1        0.0233
      7 C         141.9255  143.4302  163.5499 C.3     1  UNL1        0.0233
      8 C         141.9264  142.8128  164.9169 C.3     1  UNL1        0.0938
      9 C         141.9382  144.0249  162.0281 C.3     1  UNL1        0.0233
     10 C         142.0117  144.1952  160.5395 C.3     1  UNL1        0.0950
     11 N         142.2528  142.8459  159.9300 N.am    1  UNL1       -0.2640
     12 C         142.3938  142.5524  158.4659 C.2     1  UNL1        0.3072
     13 O         142.2948  143.6651  157.4649 O.2     1  UNL1       -0.2523
     14 N         142.6336  141.1460  158.0026 N.am    1  UNL1       -0.2612
     15 C         142.7326  140.0333  159.0034 C.3     1  UNL1        0.1123
     16 C         142.9724  138.6269  158.5401 C.3     1  UNL1        0.0939
     17 N         143.1134  138.3334  157.0760 N.3     1  UNL1       -0.2711
     18 C         143.0144  139.4462  156.0750 C.3     1  UNL1        0.0939
     19 C         142.7746  140.8525  156.5383 C.3     1  UNL1        0.1123
     20 C         142.3283  141.8418  161.0418 C.3     1  UNL1        0.0950
     21 C         141.9284  141.5779  167.6510 C.ar    1  UNL1        0.0536
     22 C         143.0947  141.9449  168.5198 C.ar    1  UNL1        0.0045
     23 C         142.8864  142.8047  169.7312 C.ar    1  UNL1        0.0001
     24 C         141.5117  143.2975  170.0737 C.ar    1  UNL1        0.0000
     25 C         140.3453  142.9305  169.2049 C.ar    1  UNL1        0.0001
     26 C         140.5536  142.0708  167.9935 C.ar    1  UNL1        0.0045
     27 C         143.3533  136.9269  156.6126 C.3     1  UNL1        0.0576
     28 C         142.9448  135.5669  157.0957 C.3     1  UNL1        0.0160
     29 C         143.6924  134.9381  155.9574 C.3     1  UNL1        0.0028
     30 C         144.1008  136.2982  155.4744 C.3     1  UNL1        0.0160
@<TRIPOS>BOND
     1     1     2    2
     2     2    21    1
     3    21    22   ar
     4    22    23   ar
     5    23    24   ar
     6    24    25   ar
     7    25    26   ar
     8     2     3   am
     9     3     4    1
    10     4     5    1
    11     5     6    1
    12     6     7    1
    13     7     8    1
    14     6     9    1
    15     9    10    1
    16    10    11    1
    17    11    12   am
    18    12    13    2
    19    12    14   am
    20    14    15    1
    21    15    16    1
    22    16    17    1
    23    17    27    1
    24    27    28    1
    25    28    29    1
    26    29    30    1
    27    17    18    1
    28    18    19    1
    29    11    20    1
    30    26    21   ar
    31     8     3    1
    32    19    14    1
    33    20     6    1
    34    30    27    1
@<TRIPOS>MOLECULE
*****
 30 34 0 0 0
SMALL
GASTEIGER

@<TRIPOS>ATOM
      1 O         143.5567  142.2319  166.4824 O.2     1  UNL1       -0.2699
      2 C         142.2998  141.4137  166.5077 C.2     1  UNL1        0.2490
      3 N         141.7888  140.7847  165.2454 N.am    1  UNL1       -0.2761
      4 C         142.5348  140.9739  163.9579 C.3     1  UNL1        0.0938
      5 C         142.0238  140.3448  162.6957 C.3     1  UNL1        0.0233
      6 C         140.7669  139.5266  162.7210 C.3     1  UNL1        0.0233
      7 C         140.0209  139.3374  164.0085 C.3     1  UNL1        0.0233
      8 C         140.5319  139.9664  165.2707 C.3     1  UNL1        0.0938
      9 C         139.5310  138.6863  162.5923 C.3     1  UNL1        0.0233
     10 C         139.4024  138.2678  161.1575 C.3     1  UNL1        0.0950
     11 N         140.5588  138.8495  160.3996 N.am    1  UNL1       -0.2640
     12 C         140.8251  138.6825  158.9330 C.2     1  UNL1        0.3072
     13 O         139.8880  137.8713  158.0881 O.2     1  UNL1       -0.2523
     14 N         142.0286  139.3266  158.3111 N.am    1  UNL1       -0.2612
     15 C         142.9657  140.1378  159.1559 C.3     1  UNL1        0.1123
     16 C         144.1691  140.7820  158.5340 C.3     1  UNL1        0.0939
     17 N         144.4354  140.6150  157.0674 N.3     1  UNL1       -0.2711
     18 C         143.4983  139.8038  156.2226 C.3     1  UNL1        0.0939
     19 C         142.2949  139.1596  156.8444 C.3     1  UNL1        0.1123
     20 C         141.4021  139.6274  161.3658 C.3     1  UNL1        0.0950
     21 C         141.5538  141.2245  167.7952 C.ar    1  UNL1        0.0536
     22 C         141.7277  139.9606  168.5841 C.ar    1  UNL1        0.0045
     23 C         140.9817  139.7714  169.8716 C.ar    1  UNL1        0.0001
     24 C         140.0618  140.8461  170.3703 C.ar    1  UNL1        0.0000
     25 C         139.8879  142.1101  169.5815 C.ar    1  UNL1        0.0001
     26 C         140.6338  142.2993  168.2940 C.ar    1  UNL1        0.0045
     27 C         145.6390  141.2592  156.4454 C.3     1  UNL1        0.0576
     28 C         146.5739  142.3636  156.8405 C.3     1  UNL1        0.0160
     29 C         147.3409  142.1703  155.5660 C.3     1  UNL1        0.0028
     30 C         146.4059  141.0658  155.1710 C.3     1  UNL1        0.0160
@<TRIPOS>BOND
     1     1     2    2
     2     2    21    1
     3    21    22   ar
     4    22    23   ar
     5    23    24   ar
     6    24    25   ar
     7    25    26   ar
     8     2     3   am
     9     3     4    1
    10     4     5    1
    11     5     6    1
    12     6     7    1
    13     7     8    1
    14     6     9    1
    15     9    10    1
    16    10    11    1
    17    11    12   am
    18    12    13    2
    19    12    14   am
    20    14    15    1
    21    15    16    1
    22    16    17    1
    23    17    27    1
    24    27    28    1
    25    28    29    1
    26    29    30    1
    27    17    18    1
    28    18    19    1
    29    11    20    1
    30    26    21   ar
    31     8     3    1
    32    19    14    1
    33    20     6    1
    34    30    27    1
@<TRIPOS>MOLECULE
*****
 30 34 0 0 0
SMALL
GASTEIGER

@<TRIPOS>ATOM
      1 O         141.2884  139.6859  166.2071 O.2     1  UNL1       -0.2699
      2 C         141.3613  141.1824  166.2786 C.2     1  UNL1        0.2490
      3 N         141.1560  142.0033  165.0400 N.am    1  UNL1       -0.2761
      4 C         140.8777  141.3276  163.7300 C.3     1  UNL1        0.0938
      5 C         140.6724  142.1485  162.4915 C.3     1  UNL1        0.0233
      6 C         140.7454  143.6450  162.5629 C.3     1  UNL1        0.0233
      7 C         141.0237  144.3207  163.8729 C.3     1  UNL1        0.0233
      8 C         141.2290  143.4998  165.1114 C.3     1  UNL1        0.0938
      9 C         140.7888  145.1421  162.4802 C.3     1  UNL1        0.0233
     10 C         140.5308  145.5353  161.0557 C.3     1  UNL1        0.0950
     11 N         140.3280  144.2811  160.2581 N.am    1  UNL1       -0.2640
     12 C         140.0427  144.2081  158.7874 C.2     1  UNL1        0.3072
     13 O         139.9377  145.4681  157.9803 O.2     1  UNL1       -0.2523
     14 N         139.8625  142.8751  158.1237 N.am    1  UNL1       -0.2612
     15 C         139.9676  141.6151  158.9307 C.3     1  UNL1        0.1123
     16 C         139.7874  140.2821  158.2670 C.3     1  UNL1        0.0939
     17 N         139.5021  140.2090  156.7962 N.3     1  UNL1       -0.2711
     18 C         139.3970  141.4690  155.9891 C.3     1  UNL1        0.0939
     19 C         139.5772  142.8020  156.6529 C.3     1  UNL1        0.1123
     20 C         140.4606  143.1129  161.1896 C.3     1  UNL1        0.0950
     21 C         141.6396  141.8580  167.5885 C.ar    1  UNL1        0.0536
     22 C         140.5414  142.5866  168.3049 C.ar    1  UNL1        0.0045
     23 C         140.8197  143.2623  169.6149 C.ar    1  UNL1        0.0001
     24 C         142.1962  143.2094  170.2085 C.ar    1  UNL1        0.0000
     25 C         143.2944  142.4808  169.4922 C.ar    1  UNL1        0.0001
     26 C         143.0162  141.8052  168.1822 C.ar    1  UNL1        0.0045
     27 C         139.3218  138.8759  156.1324 C.3     1  UNL1        0.0576
     28 C         139.6907  137.4627  156.4738 C.3     1  UNL1        0.0160
     29 C         139.0670  136.9907  155.1938 C.3     1  UNL1        0.0028
     30 C         138.6982  138.4041  154.8525 C.3     1  UNL1        0.0160
@<TRIPOS>BOND
     1     1     2    2
     2     2    21    1
     3    21    22   ar
     4    22    23   ar
     5    23    24   ar
     6    24    25   ar
     7    25    26   ar
     8     2     3   am
     9     3     4    1
    10     4     5    1
    11     5     6    1
    12     6     7    1
    13     7     8    1
    14     6     9    1
    15     9    10    1
    16    10    11    1
    17    11    12   am
    18    12    13    2
    19    12    14   am
    20    14    15    1
    21    15    16    1
    22    16    17    1
    23    17    27    1
    24    27    28    1
    25    28    29    1
    26    29    30    1
    27    17    18    1
    28    18    19    1
    29    11    20    1
    30    26    21   ar
    31     8     3    1
    32    19    14    1
    33    20     6    1
    34    30    27    1
@<TRIPOS>MOLECULE
*****
 30 34 0 0 0
SMALL
GASTEIGER

@<TRIPOS>ATOM
      1 O         140.3465  143.2571  166.5001 O.2     1  UNL1       -0.2699
      2 C         141.3087  142.1064  166.4901 C.2     1  UNL1        0.2490
      3 N         141.8347  141.5800  165.1877 N.am    1  UNL1       -0.2761
      4 C         141.3986  142.2042  163.8954 C.3     1  UNL1        0.0938
      5 C         141.9246  141.6777  162.5931 C.3     1  UNL1        0.0233
      6 C         142.8868  140.5270  162.5831 C.3     1  UNL1        0.0233
      7 C         143.3229  139.9028  163.8754 C.3     1  UNL1        0.0233
      8 C         142.7969  140.4293  165.1777 C.3     1  UNL1        0.0938
      9 C         143.8491  139.3885  162.4165 C.3     1  UNL1        0.0233
     10 C         144.1000  139.2044  160.9491 C.3     1  UNL1        0.0950
     11 N         143.2926  140.2292  160.2087 N.am    1  UNL1       -0.2640
     12 C         143.2437  140.4056  158.7200 C.2     1  UNL1        0.3072
     13 O         144.0526  139.5078  157.8314 O.2     1  UNL1       -0.2523
     14 N         142.3858  141.4797  158.1199 N.am    1  UNL1       -0.2612
     15 C         141.5769  142.3775  159.0084 C.3     1  UNL1        0.1123
     16 C         140.7190  143.4516  158.4082 C.3     1  UNL1        0.0939
     17 N         140.6700  143.6280  156.9195 N.3     1  UNL1       -0.2711
     18 C         141.4790  142.7303  156.0309 C.3     1  UNL1        0.0939
     19 C         142.3368  141.6561  156.6311 C.3     1  UNL1        0.1123
     20 C         142.5429  141.0466  161.2185 C.3     1  UNL1        0.0950
     21 C         141.7448  141.4822  167.7824 C.ar    1  UNL1        0.0536
     22 C         141.0129  140.2902  168.3242 C.ar    1  UNL1        0.0045
     23 C         141.4491  139.6660  169.6166 C.ar    1  UNL1        0.0001
     24 C         142.6171  140.2338  170.3671 C.ar    1  UNL1        0.0000
     25 C         143.3490  141.4258  169.8253 C.ar    1  UNL1        0.0001
     26 C         142.9129  142.0500  168.5330 C.ar    1  UNL1        0.0045
     27 C         139.8121  144.7023  156.3193 C.3     1  UNL1        0.0576
     28 C         139.7934  146.2010  156.3777 C.3     1  UNL1        0.0160
     29 C         138.5990  146.2214  155.4705 C.3     1  UNL1        0.0028
     30 C         138.6178  144.7226  155.4121 C.3     1  UNL1        0.0160
@<TRIPOS>BOND
     1     1     2    2
     2     2    21    1
     3    21    22   ar
     4    22    23   ar
     5    23    24   ar
     6    24    25   ar
     7    25    26   ar
     8     2     3   am
     9     3     4    1
    10     4     5    1
    11     5     6    1
    12     6     7    1
    13     7     8    1
    14     6     9    1
    15     9    10    1
    16    10    11    1
    17    11    12   am
    18    12    13    2
    19    12    14   am
    20    14    15    1
    21    15    16    1
    22    16    17    1
    23    17    27    1
    24    27    28    1
    25    28    29    1
    26    29    30    1
    27    17    18    1
    28    18    19    1
    29    11    20    1
    30    26    21   ar
    31     8     3    1
    32    19    14    1
    33    20     6    1
    34    30    27    1
