@<TRIPOS>MOLECULE
*****
 23 26 0 0 0
SMALL
GASTEIGER

@<TRIPOS>ATOM
      1 C         139.4739  140.1361  167.5784 C.ar    1  UNL1       -0.0207
      2 C         140.2845  141.2206  166.9328 C.ar    1  UNL1       -0.0027
      3 C         140.6089  141.1447  165.4703 C.ar    1  UNL1        0.0188
      4 C         140.1227  139.9845  164.6534 C.ar    1  UNL1        0.0812
      5 N         140.4471  139.9087  163.1908 N.ar    1  UNL1       -0.2453
      6 C         139.9609  138.7484  162.3739 C.ar    1  UNL1        0.0818
      7 C         139.1502  137.6639  163.0195 C.ar    1  UNL1        0.0192
      8 C         138.8258  137.7398  164.4820 C.ar    1  UNL1        0.0030
      9 C         139.3121  138.9000  165.2990 C.ar    1  UNL1        0.0174
     10 C         138.9877  138.9759  166.7615 C.ar    1  UNL1       -0.0027
     11 C         140.2853  138.6726  160.9114 C.ar    1  UNL1        0.0246
     12 C         141.6555  138.5266  160.3186 C.ar    1  UNL1        0.0090
     13 C         141.5135  138.4932  158.8257 C.ar    1  UNL1        0.0355
     14 S         140.0556  138.6186  158.4958 S.2     1  UNL1       -0.0859
     15 C         139.2965  138.7294  159.7849 C.ar    1  UNL1        0.0369
     16 C         139.1494  140.2119  169.0410 C.3     1  UNL1        0.0437
     17 C         140.2432  140.0840  170.0594 C.3     1  UNL1        0.0768
     18 C         140.0388  143.3214  170.4149 C.3     1  UNL1        0.0173
     19 C         141.2997  142.5346  170.2129 C.3     1  UNL1        0.0576
     20 C         142.6880  143.0976  170.1388 C.3     1  UNL1        0.0174
     21 C         143.6401  141.9574  169.9296 C.3     1  UNL1        0.0187
     22 C         142.8401  140.6897  169.8744 C.3     1  UNL1        0.0721
     23 N         141.3937  141.0465  170.0495 N.3     1  UNL1       -0.2737
@<TRIPOS>BOND
     1    18    19    1
     2    19    20    1
     3    20    21    1
     4    21    22    1
     5    22    23    1
     6    23    17    1
     7    17    16    1
     8    16     1    1
     9     1     2   ar
    10     2     3   ar
    11     3     4   ar
    12     4     5   ar
    13     5     6   ar
    14     6    11    1
    15    11    12   ar
    16    12    13   ar
    17    13    14   ar
    18    14    15   ar
    19     6     7   ar
    20     7     8   ar
    21     8     9   ar
    22     9    10   ar
    23    23    19    1
    24    10     1   ar
    25     9     4   ar
    26    15    11   ar
@<TRIPOS>MOLECULE
*****
 23 26 0 0 0
SMALL
GASTEIGER

@<TRIPOS>ATOM
      1 C         142.1380  140.1315  167.1972 C.ar    1  UNL1       -0.0207
      2 C         140.8450  139.7837  166.5211 C.ar    1  UNL1       -0.0027
      3 C         140.4030  140.5488  165.3090 C.ar    1  UNL1        0.0188
      4 C         141.2540  141.6617  164.7730 C.ar    1  UNL1        0.0812
      5 N         140.8119  142.4267  163.5608 N.ar    1  UNL1       -0.2453
      6 C         141.6629  143.5396  163.0247 C.ar    1  UNL1        0.0818
      7 C         142.9560  143.8874  163.7009 C.ar    1  UNL1        0.0192
      8 C         143.3980  143.1223  164.9130 C.ar    1  UNL1        0.0030
      9 C         142.5470  142.0095  165.4490 C.ar    1  UNL1        0.0174
     10 C         142.9890  141.2444  166.6611 C.ar    1  UNL1       -0.0027
     11 C         141.2209  144.3047  161.8126 C.ar    1  UNL1        0.0246
     12 C         140.2946  145.4845  161.8040 C.ar    1  UNL1        0.0090
     13 C         140.1288  145.9333  160.3823 C.ar    1  UNL1        0.0355
     14 S         140.9526  145.0307  159.5123 S.2     1  UNL1       -0.0859
     15 C         141.6275  144.0242  160.3963 C.ar    1  UNL1        0.0369
     16 C         142.5801  139.3665  168.4094 C.3     1  UNL1        0.0437
     17 C         142.2469  139.8756  169.7804 C.3     1  UNL1        0.0768
     18 C         139.0455  140.4968  169.9024 C.3     1  UNL1        0.0173
     19 C         140.1450  141.5122  170.0021 C.3     1  UNL1        0.0576
     20 C         139.9661  142.9914  170.1753 C.3     1  UNL1        0.0174
     21 C         141.3271  143.6201  170.2263 C.3     1  UNL1        0.0187
     22 C         142.3471  142.5294  170.0846 C.3     1  UNL1        0.0721
     23 N         141.6165  141.2267  169.9460 N.3     1  UNL1       -0.2737
@<TRIPOS>BOND
     1    18    19    1
     2    19    20    1
     3    20    21    1
     4    21    22    1
     5    22    23    1
     6    23    17    1
     7    17    16    1
     8    16     1    1
     9     1     2   ar
    10     2     3   ar
    11     3     4   ar
    12     4     5   ar
    13     5     6   ar
    14     6    11    1
    15    11    12   ar
    16    12    13   ar
    17    13    14   ar
    18    14    15   ar
    19     6     7   ar
    20     7     8   ar
    21     8     9   ar
    22     9    10   ar
    23    23    19    1
    24    10     1   ar
    25     9     4   ar
    26    15    11   ar
@<TRIPOS>MOLECULE
*****
 23 26 0 0 0
SMALL
GASTEIGER

@<TRIPOS>ATOM
      1 C         139.3238  137.6516  164.5343 C.ar    1  UNL1       -0.0207
      2 C         140.8036  137.4213  164.6170 C.ar    1  UNL1       -0.0027
      3 C         141.6522  137.5473  163.3865 C.ar    1  UNL1        0.0188
      4 C         141.0208  137.9035  162.0734 C.ar    1  UNL1        0.0812
      5 N         141.8694  138.0295  160.8428 N.ar    1  UNL1       -0.2453
      6 C         141.2380  138.3857  159.5296 C.ar    1  UNL1        0.0818
      7 C         139.7581  138.6160  159.4470 C.ar    1  UNL1        0.0192
      8 C         138.9096  138.4900  160.6774 C.ar    1  UNL1        0.0030
      9 C         139.5409  138.1338  161.9906 C.ar    1  UNL1        0.0174
     10 C         138.6924  138.0078  163.2211 C.ar    1  UNL1       -0.0027
     11 C         142.0865  138.5116  158.2992 C.ar    1  UNL1        0.0246
     12 C         142.4950  137.3897  157.3912 C.ar    1  UNL1        0.0090
     13 C         143.3365  137.9663  156.2914 C.ar    1  UNL1        0.0355
     14 S         143.4481  139.4447  156.5198 S.2     1  UNL1       -0.0859
     15 C         142.6756  139.7817  157.7606 C.ar    1  UNL1        0.0369
     16 C         138.4752  137.5257  165.7648 C.3     1  UNL1        0.0437
     17 C         138.0630  138.7540  166.5206 C.3     1  UNL1        0.0768
     18 C         138.2194  141.3482  164.5469 C.3     1  UNL1        0.0173
     19 C         139.0852  141.0994  165.7463 C.3     1  UNL1        0.0576
     20 C         140.1748  141.9993  166.2491 C.3     1  UNL1        0.0174
     21 C         140.7764  141.3631  167.4670 C.3     1  UNL1        0.0187
     22 C         140.0585  140.0699  167.7170 C.3     1  UNL1        0.0721
     23 N         139.0133  139.9070  166.6535 N.3     1  UNL1       -0.2737
@<TRIPOS>BOND
     1    18    19    1
     2    19    20    1
     3    20    21    1
     4    21    22    1
     5    22    23    1
     6    23    17    1
     7    17    16    1
     8    16     1    1
     9     1     2   ar
    10     2     3   ar
    11     3     4   ar
    12     4     5   ar
    13     5     6   ar
    14     6    11    1
    15    11    12   ar
    16    12    13   ar
    17    13    14   ar
    18    14    15   ar
    19     6     7   ar
    20     7     8   ar
    21     8     9   ar
    22     9    10   ar
    23    23    19    1
    24    10     1   ar
    25     9     4   ar
    26    15    11   ar
@<TRIPOS>MOLECULE
*****
 23 26 0 0 0
SMALL
GASTEIGER

@<TRIPOS>ATOM
      1 C         138.5487  139.3257  165.6146 C.ar    1  UNL1       -0.0207
      2 C         138.8403  138.0102  164.9557 C.ar    1  UNL1       -0.0027
      3 C         138.8931  137.9160  163.4597 C.ar    1  UNL1        0.0188
      4 C         138.6543  139.1375  162.6224 C.ar    1  UNL1        0.0812
      5 N         138.7072  139.0433  161.1263 N.ar    1  UNL1       -0.2453
      6 C         138.4684  140.2648  160.2890 C.ar    1  UNL1        0.0818
      7 C         138.1767  141.5805  160.9479 C.ar    1  UNL1        0.0192
      8 C         138.1239  141.6746  162.4440 C.ar    1  UNL1        0.0030
      9 C         138.3627  140.4531  163.2813 C.ar    1  UNL1        0.0174
     10 C         138.3099  140.5472  164.7773 C.ar    1  UNL1       -0.0027
     11 C         138.5212  140.1707  158.7929 C.ar    1  UNL1        0.0246
     12 C         137.6178  140.8853  157.8321 C.ar    1  UNL1        0.0090
     13 C         138.0250  140.5017  156.4403 C.ar    1  UNL1        0.0355
     14 S         139.1801  139.5500  156.5410 S.2     1  UNL1       -0.0859
     15 C         139.4868  139.3455  157.9950 C.ar    1  UNL1        0.0369
     16 C         138.4958  139.4199  167.1107 C.3     1  UNL1        0.0437
     17 C         139.7451  139.7101  167.8886 C.3     1  UNL1        0.0768
     18 C         140.9912  142.4814  166.6983 C.3     1  UNL1        0.0173
     19 C         140.4548  142.2798  168.0845 C.3     1  UNL1        0.0576
     20 C         140.3969  143.3165  169.1670 C.3     1  UNL1        0.0174
     21 C         139.7883  142.6835  170.3831 C.3     1  UNL1        0.0187
     22 C         139.4701  141.2554  170.0522 C.3     1  UNL1        0.0721
     23 N         139.8820  141.0060  168.6316 N.3     1  UNL1       -0.2737
@<TRIPOS>BOND
     1    18    19    1
     2    19    20    1
     3    20    21    1
     4    21    22    1
     5    22    23    1
     6    23    17    1
     7    17    16    1
     8    16     1    1
     9     1     2   ar
    10     2     3   ar
    11     3     4   ar
    12     4     5   ar
    13     5     6   ar
    14     6    11    1
    15    11    12   ar
    16    12    13   ar
    17    13    14   ar
    18    14    15   ar
    19     6     7   ar
    20     7     8   ar
    21     8     9   ar
    22     9    10   ar
    23    23    19    1
    24    10     1   ar
    25     9     4   ar
    26    15    11   ar
@<TRIPOS>MOLECULE
*****
 23 26 0 0 0
SMALL
GASTEIGER

@<TRIPOS>ATOM
      1 C         142.7158  138.4337  165.2622 C.ar    1  UNL1       -0.0207
      2 C         141.5409  137.5780  164.8918 C.ar    1  UNL1       -0.0027
      3 C         141.2200  137.3291  163.4479 C.ar    1  UNL1        0.0188
      4 C         142.0741  137.9358  162.3744 C.ar    1  UNL1        0.0812
      5 N         141.7532  137.6867  160.9303 N.ar    1  UNL1       -0.2453
      6 C         142.6073  138.2934  159.8568 C.ar    1  UNL1        0.0818
      7 C         143.7823  139.1491  160.2273 C.ar    1  UNL1        0.0192
      8 C         144.1032  139.3981  161.6713 C.ar    1  UNL1        0.0030
      9 C         143.2491  138.7914  162.7448 C.ar    1  UNL1        0.0174
     10 C         143.5699  139.0404  164.1887 C.ar    1  UNL1       -0.0027
     11 C         142.2865  138.0444  158.4129 C.ar    1  UNL1        0.0246
     12 C         142.7787  136.8938  157.5860 C.ar    1  UNL1        0.0090
     13 C         142.2135  137.0406  156.2044 C.ar    1  UNL1        0.0355
     14 S         141.3719  138.2820  156.1773 S.2     1  UNL1       -0.0859
     15 C         141.4170  138.9024  157.5423 C.ar    1  UNL1        0.0369
     16 C         143.0367  138.6828  166.7062 C.3     1  UNL1        0.0437
     17 C         142.6558  139.9852  167.3454 C.3     1  UNL1        0.0768
     18 C         139.4939  140.2669  166.5889 C.3     1  UNL1        0.0173
     19 C         140.0638  140.1670  167.9727 C.3     1  UNL1        0.0576
     20 C         139.2804  140.1789  169.2519 C.3     1  UNL1        0.0174
     21 C         140.2496  140.0569  170.3902 C.3     1  UNL1        0.0187
     22 C         141.6321  139.9694  169.8145 C.3     1  UNL1        0.0721
     23 N         141.5171  140.0375  168.3205 N.3     1  UNL1       -0.2737
@<TRIPOS>BOND
     1    18    19    1
     2    19    20    1
     3    20    21    1
     4    21    22    1
     5    22    23    1
     6    23    17    1
     7    17    16    1
     8    16     1    1
     9     1     2   ar
    10     2     3   ar
    11     3     4   ar
    12     4     5   ar
    13     5     6   ar
    14     6    11    1
    15    11    12   ar
    16    12    13   ar
    17    13    14   ar
    18    14    15   ar
    19     6     7   ar
    20     7     8   ar
    21     8     9   ar
    22     9    10   ar
    23    23    19    1
    24    10     1   ar
    25     9     4   ar
    26    15    11   ar
@<TRIPOS>MOLECULE
*****
 23 26 0 0 0
SMALL
GASTEIGER

@<TRIPOS>ATOM
      1 C         140.3341  145.1661  163.1053 C.ar    1  UNL1       -0.0207
      2 C         139.1474  144.7919  163.9429 C.ar    1  UNL1       -0.0027
      3 C         139.3225  143.8978  165.1345 C.ar    1  UNL1        0.0188
      4 C         140.6842  143.3779  165.4885 C.ar    1  UNL1        0.0812
      5 N         140.8592  142.4838  166.6802 N.ar    1  UNL1       -0.2453
      6 C         142.2210  141.9639  167.0341 C.ar    1  UNL1        0.0818
      7 C         143.4078  142.3382  166.1965 C.ar    1  UNL1        0.0192
      8 C         143.2327  143.2322  165.0049 C.ar    1  UNL1        0.0030
      9 C         141.8709  143.7521  164.6509 C.ar    1  UNL1        0.0174
     10 C         141.6959  144.6462  163.4593 C.ar    1  UNL1       -0.0027
     11 C         142.3960  141.0698  168.2257 C.ar    1  UNL1        0.0246
     12 C         142.2573  139.5763  168.2353 C.ar    1  UNL1        0.0090
     13 C         142.5161  139.0957  169.6325 C.ar    1  UNL1        0.0355
     14 S         142.8147  140.2923  170.4864 S.2     1  UNL1       -0.0859
     15 C         142.7405  141.5123  169.6170 C.ar    1  UNL1        0.0369
     16 C         140.1591  146.0602  161.9136 C.3     1  UNL1        0.0437
     17 C         140.0702  145.4681  160.5384 C.3     1  UNL1        0.0768
     18 C         138.5292  142.6129  160.8878 C.3     1  UNL1        0.0173
     19 C         139.9442  142.8003  160.4268 C.3     1  UNL1        0.0576
     20 C         140.8993  141.7084  160.0455 C.3     1  UNL1        0.0174
     21 C         142.1980  142.3460  159.6492 C.3     1  UNL1        0.0187
     22 C         142.0455  143.8320  159.7856 C.3     1  UNL1        0.0721
     23 N         140.6525  144.1128  160.2662 N.3     1  UNL1       -0.2737
@<TRIPOS>BOND
     1    18    19    1
     2    19    20    1
     3    20    21    1
     4    21    22    1
     5    22    23    1
     6    23    17    1
     7    17    16    1
     8    16     1    1
     9     1     2   ar
    10     2     3   ar
    11     3     4   ar
    12     4     5   ar
    13     5     6   ar
    14     6    11    1
    15    11    12   ar
    16    12    13   ar
    17    13    14   ar
    18    14    15   ar
    19     6     7   ar
    20     7     8   ar
    21     8     9   ar
    22     9    10   ar
    23    23    19    1
    24    10     1   ar
    25     9     4   ar
    26    15    11   ar
@<TRIPOS>MOLECULE
*****
 23 26 0 0 0
SMALL
GASTEIGER

@<TRIPOS>ATOM
      1 C         143.6454  143.4190  164.3366 C.ar    1  UNL1       -0.0207
      2 C         144.5345  142.8762  163.2574 C.ar    1  UNL1       -0.0027
      3 C         144.1945  143.1132  161.8158 C.ar    1  UNL1        0.0188
      4 C         142.9654  143.8930  161.4535 C.ar    1  UNL1        0.0812
      5 N         142.6255  144.1300  160.0118 N.ar    1  UNL1       -0.2453
      6 C         141.3964  144.9098  159.6494 C.ar    1  UNL1        0.0818
      7 C         140.5073  145.4526  160.7288 C.ar    1  UNL1        0.0192
      8 C         140.8472  145.2156  162.1704 C.ar    1  UNL1        0.0030
      9 C         142.0763  144.4358  162.5327 C.ar    1  UNL1        0.0174
     10 C         142.4163  144.1988  163.9743 C.ar    1  UNL1       -0.0027
     11 C         141.0564  145.1468  158.2079 C.ar    1  UNL1        0.0246
     12 C         141.6042  144.3868  157.0363 C.ar    1  UNL1        0.0090
     13 C         140.9953  144.9557  155.7891 C.ar    1  UNL1        0.0355
     14 S         140.0711  146.0672  156.1898 S.2     1  UNL1       -0.0859
     15 C         140.1090  146.1853  157.6847 C.ar    1  UNL1        0.0369
     16 C         143.9853  143.1820  165.7783 C.3     1  UNL1        0.0437
     17 C         143.3050  142.0823  166.5383 C.3     1  UNL1        0.0768
     18 C         140.1070  142.7186  166.4093 C.3     1  UNL1        0.0173
     19 C         140.9538  142.7043  167.6473 C.3     1  UNL1        0.0576
     20 C         140.4793  142.9799  169.0433 C.3     1  UNL1        0.0174
     21 C         141.6561  142.8578  169.9654 C.3     1  UNL1        0.0187
     22 C         142.8579  142.5066  169.1393 C.3     1  UNL1        0.0721
     23 N         142.4237  142.4118  167.7066 N.3     1  UNL1       -0.2737
@<TRIPOS>BOND
     1    18    19    1
     2    19    20    1
     3    20    21    1
     4    21    22    1
     5    22    23    1
     6    23    17    1
     7    17    16    1
     8    16     1    1
     9     1     2   ar
    10     2     3   ar
    11     3     4   ar
    12     4     5   ar
    13     5     6   ar
    14     6    11    1
    15    11    12   ar
    16    12    13   ar
    17    13    14   ar
    18    14    15   ar
    19     6     7   ar
    20     7     8   ar
    21     8     9   ar
    22     9    10   ar
    23    23    19    1
    24    10     1   ar
    25     9     4   ar
    26    15    11   ar
@<TRIPOS>MOLECULE
*****
 23 26 0 0 0
SMALL
GASTEIGER

@<TRIPOS>ATOM
      1 C         139.4094  137.8035  163.9092 C.ar    1  UNL1       -0.0207
      2 C         138.4411  138.0168  162.7837 C.ar    1  UNL1       -0.0027
      3 C         138.9484  138.2339  161.3889 C.ar    1  UNL1        0.0188
      4 C         140.4240  138.2376  161.1197 C.ar    1  UNL1        0.0812
      5 N         140.9314  138.4547  159.7248 N.ar    1  UNL1       -0.2453
      6 C         142.4070  138.4584  159.4555 C.ar    1  UNL1        0.0818
      7 C         143.3753  138.2450  160.5812 C.ar    1  UNL1        0.0192
      8 C         142.8680  138.0280  161.9759 C.ar    1  UNL1        0.0030
      9 C         141.3923  138.0243  162.2452 C.ar    1  UNL1        0.0174
     10 C         140.8850  137.8072  163.6400 C.ar    1  UNL1       -0.0027
     11 C         142.9143  138.6755  158.0608 C.ar    1  UNL1        0.0246
     12 C         143.5139  139.9430  157.5279 C.ar    1  UNL1        0.0090
     13 C         143.8813  139.7140  156.0917 C.ar    1  UNL1        0.0355
     14 S         143.5088  138.3049  155.7370 S.2     1  UNL1       -0.0859
     15 C         142.9112  137.6631  156.9540 C.ar    1  UNL1        0.0369
     16 C         138.9020  137.5864  165.3041 C.3     1  UNL1        0.0437
     17 C         138.2824  138.7228  166.0621 C.3     1  UNL1        0.0768
     18 C         140.7242  140.1508  167.6894 C.3     1  UNL1        0.0173
     19 C         139.9027  140.7789  166.6028 C.3     1  UNL1        0.0576
     20 C         140.0593  142.1736  166.0735 C.3     1  UNL1        0.0174
     21 C         139.0336  142.3793  164.9984 C.3     1  UNL1        0.0187
     22 C         138.2432  141.1115  164.8632 C.3     1  UNL1        0.0721
     23 N         138.7803  140.1225  165.8549 N.3     1  UNL1       -0.2737
@<TRIPOS>BOND
     1    18    19    1
     2    19    20    1
     3    20    21    1
     4    21    22    1
     5    22    23    1
     6    23    17    1
     7    17    16    1
     8    16     1    1
     9     1     2   ar
    10     2     3   ar
    11     3     4   ar
    12     4     5   ar
    13     5     6   ar
    14     6    11    1
    15    11    12   ar
    16    12    13   ar
    17    13    14   ar
    18    14    15   ar
    19     6     7   ar
    20     7     8   ar
    21     8     9   ar
    22     9    10   ar
    23    23    19    1
    24    10     1   ar
    25     9     4   ar
    26    15    11   ar
@<TRIPOS>MOLECULE
*****
 23 26 0 0 0
SMALL
GASTEIGER

@<TRIPOS>ATOM
      1 C         138.1125  140.5926  164.3563 C.ar    1  UNL1       -0.0207
      2 C         137.9217  142.0798  164.3149 C.ar    1  UNL1       -0.0027
      3 C         137.9244  142.8000  162.9992 C.ar    1  UNL1        0.0188
      4 C         138.1180  142.0329  161.7247 C.ar    1  UNL1        0.0812
      5 N         138.1208  142.7532  160.4089 N.ar    1  UNL1       -0.2453
      6 C         138.3144  141.9862  159.1345 C.ar    1  UNL1        0.0818
      7 C         138.5052  140.4989  159.1759 C.ar    1  UNL1        0.0192
      8 C         138.5025  139.7787  160.4916 C.ar    1  UNL1        0.0030
      9 C         138.3089  140.5457  161.7661 C.ar    1  UNL1        0.0174
     10 C         138.3061  139.8256  163.0818 C.ar    1  UNL1       -0.0027
     11 C         138.3171  142.7064  157.8187 C.ar    1  UNL1        0.0246
     12 C         137.2871  142.5701  156.7369 C.ar    1  UNL1        0.0090
     13 C         137.6837  143.4688  155.6033 C.ar    1  UNL1        0.0355
     14 S         138.9590  144.1605  155.9846 S.2     1  UNL1       -0.0859
     15 C         139.3505  143.6892  157.3538 C.ar    1  UNL1        0.0369
     16 C         138.1098  139.8723  165.6721 C.3     1  UNL1        0.0437
     17 C         139.3898  139.6982  166.4345 C.3     1  UNL1        0.0768
     18 C         140.9199  142.5805  166.4319 C.3     1  UNL1        0.0173
     19 C         140.3713  141.8747  167.6364 C.3     1  UNL1        0.0576
     20 C         140.4297  142.3698  169.0511 C.3     1  UNL1        0.0174
     21 C         139.7624  141.3508  169.9267 C.3     1  UNL1        0.0187
     22 C         139.2916  140.2260  169.0530 C.3     1  UNL1        0.0721
     23 N         139.6680  140.5498  167.6376 N.3     1  UNL1       -0.2737
@<TRIPOS>BOND
     1    18    19    1
     2    19    20    1
     3    20    21    1
     4    21    22    1
     5    22    23    1
     6    23    17    1
     7    17    16    1
     8    16     1    1
     9     1     2   ar
    10     2     3   ar
    11     3     4   ar
    12     4     5   ar
    13     5     6   ar
    14     6    11    1
    15    11    12   ar
    16    12    13   ar
    17    13    14   ar
    18    14    15   ar
    19     6     7   ar
    20     7     8   ar
    21     8     9   ar
    22     9    10   ar
    23    23    19    1
    24    10     1   ar
    25     9     4   ar
    26    15    11   ar
