@<TRIPOS>MOLECULE
*****
 35 38 0 0 0
SMALL
GASTEIGER

@<TRIPOS>ATOM
      1 N         139.4384  145.2172  164.3491 N.3     1  UNL1       -0.3162
      2 C         139.5971  144.3560  163.1314 C.3     1  UNL1        0.1166
      3 C         139.5829  143.1398  162.2533 C.3     1  UNL1        0.0739
      4 C         140.0116  143.2447  160.8198 C.3     1  UNL1        0.2039
      5 N         140.4546  144.5657  160.2641 N.pl3   1  UNL1       -0.1931
      6 C         140.4689  145.7819  161.1421 C.3     1  UNL1        0.2039
      7 C         140.0401  145.6769  162.5757 C.3     1  UNL1        0.0739
      8 H         139.0961  144.6498  165.1245 H       1  UNL1        0.1192
      9 H         138.7711  145.9634  164.1532 H       1  UNL1        0.1192
     10 C         140.8833  144.6705  158.8305 C.2     1  UNL1        0.3205
     11 N         140.1418  145.5737  157.8901 N.2     1  UNL1        0.0097
     12 C         140.5705  145.6785  156.4566 C.2     1  UNL1        0.4717
     13 N         141.7408  144.8802  155.9633 N.2     1  UNL1        0.0158
     14 C         142.4823  143.9770  156.9038 C.2     1  UNL1        0.3714
     15 N         143.6645  143.0752  156.7063 N.2     1  UNL1       -0.0339
     16 C         143.9664  142.4130  158.0179 C.2     1  UNL1        0.2323
     17 C         142.9708  142.9056  159.0260 C.2     1  UNL1        0.0486
     18 C         142.0536  143.8722  158.3374 C.3     1  UNL1        0.2428
     19 C         139.0990  143.3341  164.1099 C.2     1  UNL1        0.2352
     20 O         137.7249  143.4650  164.6969 O.2     1  UNL1       -0.2737
     21 N         139.9751  142.1811  164.5013 N.am    1  UNL1       -0.3012
     22 H         140.8770  142.0952  164.1160 H       1  UNL1        0.1497
     23 C         139.4770  141.1591  165.4799 C.3     1  UNL1        0.0942
     24 C         139.8416  141.2698  166.9306 C.ar    1  UNL1       -0.0045
     25 C         139.5767  140.1226  167.8601 C.ar    1  UNL1       -0.0018
     26 C         139.9413  140.2333  169.3109 C.ar    1  UNL1        0.0111
     27 C         140.5707  141.4911  169.8322 C.ar    1  UNL1        0.0577
     28 CL        140.9353  141.6017  171.2831 Cl      1  UNL1       -0.0822
     29 C         140.8356  142.6382  168.9028 C.ar    1  UNL1        0.0111
     30 C         140.4711  142.5276  167.4519 C.ar    1  UNL1       -0.0018
     31 C         138.6144  140.0265  165.0075 C.3     1  UNL1        0.0267
     32 C         138.6593  139.5983  163.5706 C.3     1  UNL1        0.0338
     33 C         137.6458  140.1260  162.5988 C.3     1  UNL1        0.1372
     34 O         136.6908  141.2026  163.0219 O.3     1  UNL1       -0.3820
     35 H         136.0957  140.8567  163.7053 H       1  UNL1        0.2104
@<TRIPOS>BOND
     1     1     2    1
     2     2    19    1
     3    19    20    2
     4    19    21   am
     5    21    23    1
     6    23    31    1
     7    31    32    1
     8    32    33    1
     9    33    34    1
    10    23    24    1
    11    24    25   ar
    12    25    26   ar
    13    26    27   ar
    14    27    28    1
    15    27    29   ar
    16    29    30   ar
    17     2     3    1
    18     3     4    1
    19     4     5    1
    20     5    10    1
    21    10    11    2
    22    11    12    1
    23    12    13    2
    24    13    14    1
    25    14    15    2
    26    15    16    1
    27    16    17    2
    28    17    18    1
    29     5     6    1
    30     6     7    1
    31     7     2    1
    32    30    24   ar
    33    18    10    1
    34    18    14    1
    35     1     8    1
    36     1     9    1
    37    21    22    1
    38    34    35    1
@<TRIPOS>MOLECULE
*****
 35 38 0 0 0
SMALL
GASTEIGER

@<TRIPOS>ATOM
      1 N         140.8153  145.5242  163.9712 N.3     1  UNL1       -0.3162
      2 C         141.3157  144.8649  162.7203 C.3     1  UNL1        0.1166
      3 C         142.1059  143.9578  161.8242 C.3     1  UNL1        0.0739
      4 C         141.8881  143.9934  160.3406 C.3     1  UNL1        0.2039
      5 N         140.8802  144.9361  159.7529 N.pl3   1  UNL1       -0.1931
      6 C         140.0901  145.8433  160.6488 C.3     1  UNL1        0.2039
      7 C         140.3079  145.8077  162.1325 C.3     1  UNL1        0.0739
      8 H         141.3014  145.1344  164.7787 H       1  UNL1        0.1192
      9 H         139.8132  145.3588  164.0651 H       1  UNL1        0.1192
     10 C         140.6625  144.9717  158.2692 C.2     1  UNL1        0.3205
     11 N         141.4196  145.9522  157.4233 N.2     1  UNL1        0.0097
     12 C         141.2019  145.9877  155.9397 C.2     1  UNL1        0.4717
     13 N         140.2270  145.0428  155.3018 N.2     1  UNL1        0.0158
     14 C         139.4699  144.0624  156.1476 C.2     1  UNL1        0.3714
     15 N         138.4516  143.0162  155.8033 N.2     1  UNL1       -0.0339
     16 C         138.0400  142.3341  157.0742 C.2     1  UNL1        0.2323
     17 C         138.8039  142.9586  158.2040 C.2     1  UNL1        0.0486
     18 C         139.6876  144.0268  157.6313 C.3     1  UNL1        0.2428
     19 C         142.1499  144.1511  163.7424 C.2     1  UNL1        0.2352
     20 O         143.3986  144.7919  164.2715 O.2     1  UNL1       -0.2737
     21 N         141.7351  142.7965  164.2353 N.am    1  UNL1       -0.3012
     22 H         140.9155  142.3760  163.8880 H       1  UNL1        0.1497
     23 C         142.5692  142.0826  165.2574 C.3     1  UNL1        0.0942
     24 C         142.1978  142.1512  166.7091 C.ar    1  UNL1       -0.0045
     25 C         143.2689  142.2701  167.7525 C.ar    1  UNL1       -0.0018
     26 C         142.8975  142.3387  169.2041 C.ar    1  UNL1        0.0111
     27 C         141.4550  142.2885  169.6124 C.ar    1  UNL1        0.0577
     28 CL        141.0837  142.3572  171.0641 Cl      1  UNL1       -0.0822
     29 C         140.3839  142.1697  168.5691 C.ar    1  UNL1        0.0111
     30 C         140.7553  142.1010  167.1173 C.ar    1  UNL1       -0.0018
     31 C         143.7746  141.3000  164.8278 C.3     1  UNL1        0.0267
     32 C         144.0232  141.0453  163.3706 C.3     1  UNL1        0.0338
     33 C         145.0878  141.8142  162.6458 C.3     1  UNL1        0.1372
     34 O         146.4956  141.8158  163.1634 O.3     1  UNL1       -0.3820
     35 H         146.5242  142.2680  164.0211 H       1  UNL1        0.2104
@<TRIPOS>BOND
     1     1     2    1
     2     2    19    1
     3    19    20    2
     4    19    21   am
     5    21    23    1
     6    23    31    1
     7    31    32    1
     8    32    33    1
     9    33    34    1
    10    23    24    1
    11    24    25   ar
    12    25    26   ar
    13    26    27   ar
    14    27    28    1
    15    27    29   ar
    16    29    30   ar
    17     2     3    1
    18     3     4    1
    19     4     5    1
    20     5    10    1
    21    10    11    2
    22    11    12    1
    23    12    13    2
    24    13    14    1
    25    14    15    2
    26    15    16    1
    27    16    17    2
    28    17    18    1
    29     5     6    1
    30     6     7    1
    31     7     2    1
    32    30    24   ar
    33    18    10    1
    34    18    14    1
    35     1     8    1
    36     1     9    1
    37    21    22    1
    38    34    35    1
@<TRIPOS>MOLECULE
*****
 35 38 0 0 0
SMALL
GASTEIGER

@<TRIPOS>ATOM
      1 N         139.7606  145.1738  164.2478 N.3     1  UNL1       -0.3162
      2 C         140.3384  144.4311  163.0797 C.3     1  UNL1        0.1166
      3 C         141.0155  143.3480  162.2932 C.3     1  UNL1        0.0739
      4 C         141.2059  143.5028  160.8135 C.3     1  UNL1        0.2039
      5 N         140.7191  144.7408  160.1201 N.pl3   1  UNL1       -0.1931
      6 C         140.0420  145.8238  160.9065 C.3     1  UNL1        0.2039
      7 C         139.8516  145.6689  162.3863 C.3     1  UNL1        0.0739
      8 H         139.8812  144.6202  165.0960 H       1  UNL1        0.1192
      9 H         138.7668  145.3388  164.0879 H       1  UNL1        0.1192
     10 C         140.9095  144.8956  158.6403 C.2     1  UNL1        0.3205
     11 N         141.9731  145.8124  158.1128 N.2     1  UNL1        0.0097
     12 C         142.1635  145.9673  156.6331 C.2     1  UNL1        0.4717
     13 N         141.2904  145.2052  155.6807 N.2     1  UNL1        0.0158
     14 C         140.2268  144.2883  156.2082 C.2     1  UNL1        0.3714
     15 N         139.2223  143.4143  155.5176 N.2     1  UNL1       -0.0339
     16 C         138.4110  142.7193  156.5706 C.2     1  UNL1        0.2323
     17 C         138.9142  143.1638  157.9120 C.2     1  UNL1        0.0486
     18 C         140.0364  144.1335  157.6880 C.3     1  UNL1        0.2428
     19 C         140.6245  143.4511  164.1787 C.2     1  UNL1        0.2352
     20 O         140.1817  143.7464  165.5811 O.2     1  UNL1       -0.2737
     21 N         141.3535  142.1758  163.8752 N.am    1  UNL1       -0.3012
     22 H         141.6441  141.9820  162.9547 H       1  UNL1        0.1497
     23 C         141.6397  141.1957  164.9741 C.3     1  UNL1        0.0942
     24 C         140.5192  140.4117  165.5904 C.ar    1  UNL1       -0.0045
     25 C         139.6430  139.5516  164.7287 C.ar    1  UNL1       -0.0018
     26 C         138.5225  138.7676  165.3451 C.ar    1  UNL1        0.0111
     27 C         138.2782  138.8438  166.8231 C.ar    1  UNL1        0.0577
     28 CL        137.1577  138.0598  167.4394 Cl      1  UNL1       -0.0822
     29 C         139.1544  139.7038  167.6848 C.ar    1  UNL1        0.0111
     30 C         140.2749  140.4879  167.0685 C.ar    1  UNL1       -0.0018
     31 C         143.0463  140.9997  165.4567 C.3     1  UNL1        0.0267
     32 C         144.1705  141.7624  164.8207 C.3     1  UNL1        0.0338
     33 C         145.2027  141.0383  164.0080 C.3     1  UNL1        0.1372
     34 O         146.3188  141.8029  163.3602 O.3     1  UNL1       -0.3820
     35 H         145.9559  142.3884  162.6773 H       1  UNL1        0.2104
@<TRIPOS>BOND
     1     1     2    1
     2     2    19    1
     3    19    20    2
     4    19    21   am
     5    21    23    1
     6    23    31    1
     7    31    32    1
     8    32    33    1
     9    33    34    1
    10    23    24    1
    11    24    25   ar
    12    25    26   ar
    13    26    27   ar
    14    27    28    1
    15    27    29   ar
    16    29    30   ar
    17     2     3    1
    18     3     4    1
    19     4     5    1
    20     5    10    1
    21    10    11    2
    22    11    12    1
    23    12    13    2
    24    13    14    1
    25    14    15    2
    26    15    16    1
    27    16    17    2
    28    17    18    1
    29     5     6    1
    30     6     7    1
    31     7     2    1
    32    30    24   ar
    33    18    10    1
    34    18    14    1
    35     1     8    1
    36     1     9    1
    37    21    22    1
    38    34    35    1
@<TRIPOS>MOLECULE
*****
 35 38 0 0 0
SMALL
GASTEIGER

@<TRIPOS>ATOM
      1 N         139.8983  145.4832  163.8078 N.3     1  UNL1       -0.3162
      2 C         139.9467  144.4185  162.7524 C.3     1  UNL1        0.1166
      3 C         139.9282  143.0581  162.1206 C.3     1  UNL1        0.0739
      4 C         140.0855  142.9186  160.6355 C.3     1  UNL1        0.2039
      5 N         140.2615  144.1396  159.7820 N.pl3   1  UNL1       -0.1931
      6 C         140.2800  145.4999  160.4137 C.3     1  UNL1        0.2039
      7 C         140.1226  145.6393  161.8989 C.3     1  UNL1        0.0739
      8 H         139.7674  145.0501  164.7219 H       1  UNL1        0.1192
      9 H         139.1215  146.1161  163.6169 H       1  UNL1        0.1192
     10 C         140.4188  144.0001  158.2968 C.2     1  UNL1        0.3205
     11 N         141.6374  144.5501  157.6168 N.2     1  UNL1        0.0097
     12 C         141.7948  144.4106  156.1317 C.2     1  UNL1        0.4717
     13 N         140.7336  143.7211  155.3264 N.2     1  UNL1        0.0158
     14 C         139.5150  143.1711  156.0064 C.2     1  UNL1        0.3714
     15 N         138.3118  142.4474  155.4787 N.2     1  UNL1       -0.0339
     16 C         137.4107  142.1396  156.6378 C.2     1  UNL1        0.2323
     17 C         138.0571  142.6730  157.8818 C.2     1  UNL1        0.0486
     18 C         139.3576  143.3106  157.4916 C.3     1  UNL1        0.2428
     19 C         139.7540  143.5673  163.9724 C.2     1  UNL1        0.2352
     20 O         138.6262  143.8565  164.9182 O.2     1  UNL1       -0.2737
     21 N         140.6891  142.4269  164.2465 N.am    1  UNL1       -0.3012
     22 H         141.4293  142.2372  163.6257 H       1  UNL1        0.1497
     23 C         140.4964  141.5757  165.4665 C.3     1  UNL1        0.0942
     24 C         141.1086  141.9873  166.7725 C.ar    1  UNL1       -0.0045
     25 C         140.2506  142.5859  167.8474 C.ar    1  UNL1       -0.0018
     26 C         140.8628  142.9975  169.1535 C.ar    1  UNL1        0.0111
     27 C         142.3330  142.8105  169.3846 C.ar    1  UNL1        0.0577
     28 CL        142.9452  143.2222  170.6907 Cl      1  UNL1       -0.0822
     29 C         143.1911  142.2119  168.3097 C.ar    1  UNL1        0.0111
     30 C         142.5789  141.8003  167.0036 C.ar    1  UNL1       -0.0018
     31 C         139.6916  140.3128  165.3803 C.3     1  UNL1        0.0267
     32 C         138.2338  140.3749  165.0321 C.3     1  UNL1        0.0338
     33 C         137.8062  140.3915  163.5944 C.3     1  UNL1        0.1372
     34 O         136.6782  141.2786  163.1578 O.3     1  UNL1       -0.3820
     35 H         135.8528  140.9782  163.5693 H       1  UNL1        0.2104
@<TRIPOS>BOND
     1     1     2    1
     2     2    19    1
     3    19    20    2
     4    19    21   am
     5    21    23    1
     6    23    31    1
     7    31    32    1
     8    32    33    1
     9    33    34    1
    10    23    24    1
    11    24    25   ar
    12    25    26   ar
    13    26    27   ar
    14    27    28    1
    15    27    29   ar
    16    29    30   ar
    17     2     3    1
    18     3     4    1
    19     4     5    1
    20     5    10    1
    21    10    11    2
    22    11    12    1
    23    12    13    2
    24    13    14    1
    25    14    15    2
    26    15    16    1
    27    16    17    2
    28    17    18    1
    29     5     6    1
    30     6     7    1
    31     7     2    1
    32    30    24   ar
    33    18    10    1
    34    18    14    1
    35     1     8    1
    36     1     9    1
    37    21    22    1
    38    34    35    1
@<TRIPOS>MOLECULE
*****
 35 38 0 0 0
SMALL
GASTEIGER

@<TRIPOS>ATOM
      1 N         141.5434  145.7386  163.8515 N.3     1  UNL1       -0.3162
      2 C         141.4444  144.6422  162.8327 C.3     1  UNL1        0.1166
      3 C         141.6351  143.3074  162.1753 C.3     1  UNL1        0.0739
      4 C         141.0260  143.0396  160.8310 C.3     1  UNL1        0.2039
      5 N         140.2262  144.1066  160.1440 N.pl3   1  UNL1       -0.1931
      6 C         140.0355  145.4413  160.8013 C.3     1  UNL1        0.2039
      7 C         140.6446  145.7091  162.1457 C.3     1  UNL1        0.0739
      8 H         142.0977  145.4165  164.6448 H       1  UNL1        0.1192
      9 H         140.6082  145.9917  164.1705 H       1  UNL1        0.1192
     10 C         139.6171  143.8388  158.7996 C.2     1  UNL1        0.3205
     11 N         138.4519  142.9021  158.6773 N.2     1  UNL1        0.0097
     12 C         137.8429  142.6343  157.3330 C.2     1  UNL1        0.4717
     13 N         138.3989  143.3031  156.1109 N.2     1  UNL1        0.0158
     14 C         139.5641  144.2398  156.2332 C.2     1  UNL1        0.3714
     15 N         140.3210  145.0386  155.2139 N.2     1  UNL1       -0.0339
     16 C         141.3979  145.8001  155.9283 C.2     1  UNL1        0.2323
     17 C         141.3066  145.4720  157.3891 C.2     1  UNL1        0.0486
     18 C         140.1732  144.5076  157.5776 C.3     1  UNL1        0.2428
     19 C         142.2786  143.9560  163.8735 C.2     1  UNL1        0.2352
     20 O         143.5360  144.6032  164.3734 O.2     1  UNL1       -0.2737
     21 N         141.8553  142.6224  164.4143 N.am    1  UNL1       -0.3012
     22 H         141.0300  142.1976  164.0861 H       1  UNL1        0.1497
     23 C         142.6894  141.9361  165.4551 C.3     1  UNL1        0.0942
     24 C         142.2791  141.9849  166.8970 C.ar    1  UNL1       -0.0045
     25 C         143.2971  142.2858  167.9568 C.ar    1  UNL1       -0.0018
     26 C         142.8868  142.3346  169.3987 C.ar    1  UNL1        0.0111
     27 C         141.4584  142.0824  169.7809 C.ar    1  UNL1        0.0577
     28 CL        141.0480  142.1312  171.2229 Cl      1  UNL1       -0.0822
     29 C         140.4403  141.7816  168.7212 C.ar    1  UNL1        0.0111
     30 C         140.8506  141.7328  167.2792 C.ar    1  UNL1       -0.0018
     31 C         143.9339  141.2011  165.0539 C.3     1  UNL1        0.0267
     32 C         144.1177  140.7574  163.6328 C.3     1  UNL1        0.0338
     33 C         145.0430  141.5124  162.7251 C.3     1  UNL1        0.1372
     34 O         146.4437  141.8168  163.1670 O.3     1  UNL1       -0.3820
     35 H         146.4197  142.4284  163.9195 H       1  UNL1        0.2104
@<TRIPOS>BOND
     1     1     2    1
     2     2    19    1
     3    19    20    2
     4    19    21   am
     5    21    23    1
     6    23    31    1
     7    31    32    1
     8    32    33    1
     9    33    34    1
    10    23    24    1
    11    24    25   ar
    12    25    26   ar
    13    26    27   ar
    14    27    28    1
    15    27    29   ar
    16    29    30   ar
    17     2     3    1
    18     3     4    1
    19     4     5    1
    20     5    10    1
    21    10    11    2
    22    11    12    1
    23    12    13    2
    24    13    14    1
    25    14    15    2
    26    15    16    1
    27    16    17    2
    28    17    18    1
    29     5     6    1
    30     6     7    1
    31     7     2    1
    32    30    24   ar
    33    18    10    1
    34    18    14    1
    35     1     8    1
    36     1     9    1
    37    21    22    1
    38    34    35    1
@<TRIPOS>MOLECULE
*****
 35 38 0 0 0
SMALL
GASTEIGER

@<TRIPOS>ATOM
      1 N         143.5052  138.6856  163.4279 N.3     1  UNL1       -0.3162
      2 C         142.6196  139.6835  164.1133 C.3     1  UNL1        0.1166
      3 C         141.7331  140.8765  164.3158 C.3     1  UNL1        0.0739
      4 C         141.1566  141.1611  165.6709 C.3     1  UNL1        0.2039
      5 N         141.4665  140.2527  166.8238 N.pl3   1  UNL1       -0.1931
      6 C         142.3530  139.0598  166.6213 C.3     1  UNL1        0.2039
      7 C         142.9295  138.7752  165.2661 C.3     1  UNL1        0.0739
      8 H         143.6043  138.9379  162.4446 H       1  UNL1        0.1192
      9 H         143.0904  137.7566  163.5004 H       1  UNL1        0.1192
     10 C         140.8900  140.5374  168.1790 C.2     1  UNL1        0.3205
     11 N         139.5771  139.9315  168.5778 N.2     1  UNL1        0.0097
     12 C         139.0006  140.2161  169.9329 C.2     1  UNL1        0.4717
     13 N         139.7369  141.1068  170.8894 N.2     1  UNL1        0.0158
     14 C         141.0497  141.7127  170.4905 C.2     1  UNL1        0.3714
     15 N         141.9968  142.6225  171.2154 N.2     1  UNL1       -0.0339
     16 C         143.1586  142.9001  170.3082 C.2     1  UNL1        0.2323
     17 C         142.9297  142.1619  169.0226 C.2     1  UNL1        0.0486
     18 C         141.6263  141.4281  169.1353 C.3     1  UNL1        0.2428
     19 C         142.6172  140.2453  162.7225 C.2     1  UNL1        0.2352
     20 O         141.3484  140.7885  162.1352 O.2     1  UNL1       -0.2737
     21 N         143.8838  140.2639  161.9191 N.am    1  UNL1       -0.3012
     22 H         144.7166  139.9073  162.3046 H       1  UNL1        0.1497
     23 C         143.8815  140.8257  160.5282 C.3     1  UNL1        0.0942
     24 C         143.5646  139.9381  159.3613 C.ar    1  UNL1       -0.0045
     25 C         143.8323  140.4124  157.9637 C.ar    1  UNL1       -0.0018
     26 C         143.5154  139.5248  156.7968 C.ar    1  UNL1        0.0111
     27 C         142.9309  138.1628  157.0276 C.ar    1  UNL1        0.0577
     28 CL        142.6140  137.2751  155.8606 Cl      1  UNL1       -0.0822
     29 C         142.6632  137.6884  158.4251 C.ar    1  UNL1        0.0111
     30 C         142.9800  138.5760  159.5921 C.ar    1  UNL1       -0.0018
     31 C         144.1961  142.2752  160.3044 C.3     1  UNL1        0.0267
     32 C         143.4887  143.3284  161.1047 C.3     1  UNL1        0.0338
     33 C         144.1091  143.8559  162.3644 C.3     1  UNL1        0.1372
     34 O         144.0571  145.3239  162.6683 O.3     1  UNL1       -0.3820
     35 H         144.5830  145.8085  162.0130 H       1  UNL1        0.2104
@<TRIPOS>BOND
     1     1     2    1
     2     2    19    1
     3    19    20    2
     4    19    21   am
     5    21    23    1
     6    23    31    1
     7    31    32    1
     8    32    33    1
     9    33    34    1
    10    23    24    1
    11    24    25   ar
    12    25    26   ar
    13    26    27   ar
    14    27    28    1
    15    27    29   ar
    16    29    30   ar
    17     2     3    1
    18     3     4    1
    19     4     5    1
    20     5    10    1
    21    10    11    2
    22    11    12    1
    23    12    13    2
    24    13    14    1
    25    14    15    2
    26    15    16    1
    27    16    17    2
    28    17    18    1
    29     5     6    1
    30     6     7    1
    31     7     2    1
    32    30    24   ar
    33    18    10    1
    34    18    14    1
    35     1     8    1
    36     1     9    1
    37    21    22    1
    38    34    35    1
@<TRIPOS>MOLECULE
*****
 35 38 0 0 0
SMALL
GASTEIGER

@<TRIPOS>ATOM
      1 N         144.4358  139.5245  162.1858 N.3     1  UNL1       -0.3162
      2 C         144.3850  140.7787  161.3648 C.3     1  UNL1        0.1166
      3 C         144.4072  142.2378  161.0172 C.3     1  UNL1        0.0739
      4 C         144.2368  142.6717  159.5916 C.3     1  UNL1        0.2039
      5 N         144.0442  141.6467  158.5134 N.pl3   1  UNL1       -0.1931
      6 C         144.0220  140.1877  158.8610 C.3     1  UNL1        0.2039
      7 C         144.1924  139.7538  160.2867 C.3     1  UNL1        0.0739
      8 H         144.5784  139.7656  163.1666 H       1  UNL1        0.1192
      9 H         145.2063  138.9386  161.8642 H       1  UNL1        0.1192
     10 C         143.8738  142.0807  157.0877 C.2     1  UNL1        0.3205
     11 N         142.4994  142.3134  156.5337 N.2     1  UNL1        0.0097
     12 C         142.3290  142.7474  155.1081 C.2     1  UNL1        0.4717
     13 N         143.5330  142.9488  154.2363 N.2     1  UNL1        0.0158
     14 C         144.9074  142.7161  154.7903 C.2     1  UNL1        0.3714
     15 N         146.2705  142.8330  154.1753 N.2     1  UNL1       -0.0339
     16 C         147.2833  142.4712  155.2208 C.2     1  UNL1        0.2323
     17 C         146.5462  142.1307  156.4821 C.2     1  UNL1        0.0486
     18 C         145.0778  142.2821  156.2160 C.3     1  UNL1        0.2428
     19 C         144.5952  141.3682  162.7280 C.2     1  UNL1        0.2352
     20 O         145.9718  141.4117  163.3222 O.2     1  UNL1       -0.2737
     21 N         143.4287  141.9141  163.4970 N.am    1  UNL1       -0.3012
     22 H         142.5252  141.8855  163.1070 H       1  UNL1        0.1497
     23 C         143.6389  142.5036  164.8603 C.3     1  UNL1        0.0942
     24 C         143.2885  141.7088  166.0832 C.ar    1  UNL1       -0.0045
     25 C         143.2518  142.3760  167.4262 C.ar    1  UNL1       -0.0018
     26 C         142.9013  141.5813  168.6491 C.ar    1  UNL1        0.0111
     27 C         142.5877  140.1193  168.5290 C.ar    1  UNL1        0.0577
     28 CL        142.2372  139.3246  169.7520 Cl      1  UNL1       -0.0822
     29 C         142.6244  139.4521  167.1861 C.ar    1  UNL1        0.0111
     30 C         142.9748  140.2469  165.9631 C.ar    1  UNL1       -0.0018
     31 C         144.1995  143.8878  165.0005 C.3     1  UNL1        0.0267
     32 C         143.7214  144.9857  164.0971 C.3     1  UNL1        0.0338
     33 C         142.2567  145.1371  163.8110 C.3     1  UNL1        0.1372
     34 O         141.7956  145.4938  162.4289 O.3     1  UNL1       -0.3820
     35 H         142.0975  146.3888  162.2083 H       1  UNL1        0.2104
@<TRIPOS>BOND
     1     1     2    1
     2     2    19    1
     3    19    20    2
     4    19    21   am
     5    21    23    1
     6    23    31    1
     7    31    32    1
     8    32    33    1
     9    33    34    1
    10    23    24    1
    11    24    25   ar
    12    25    26   ar
    13    26    27   ar
    14    27    28    1
    15    27    29   ar
    16    29    30   ar
    17     2     3    1
    18     3     4    1
    19     4     5    1
    20     5    10    1
    21    10    11    2
    22    11    12    1
    23    12    13    2
    24    13    14    1
    25    14    15    2
    26    15    16    1
    27    16    17    2
    28    17    18    1
    29     5     6    1
    30     6     7    1
    31     7     2    1
    32    30    24   ar
    33    18    10    1
    34    18    14    1
    35     1     8    1
    36     1     9    1
    37    21    22    1
    38    34    35    1
@<TRIPOS>MOLECULE
*****
 35 38 0 0 0
SMALL
GASTEIGER

@<TRIPOS>ATOM
      1 N         143.0546  143.3452  162.9219 N.3     1  UNL1       -0.3162
      2 C         142.2026  142.5123  163.8331 C.3     1  UNL1        0.1166
      3 C         141.0782  141.6373  164.3024 C.3     1  UNL1        0.0739
      4 C         141.0342  141.1725  165.7278 C.3     1  UNL1        0.2039
      5 N         142.1148  141.5826  166.6841 N.pl3   1  UNL1       -0.1931
      6 C         143.2392  142.4575  166.2149 C.3     1  UNL1        0.2039
      7 C         143.2831  142.9223  164.7893 C.3     1  UNL1        0.0739
      8 H         142.6406  143.3612  161.9898 H       1  UNL1        0.1192
      9 H         143.9910  142.9441  162.8711 H       1  UNL1        0.1192
     10 C         142.0708  141.1178  168.1096 C.2     1  UNL1        0.3205
     11 N         142.7881  139.8633  168.5118 N.2     1  UNL1        0.0097
     12 C         142.7441  139.3985  169.9372 C.2     1  UNL1        0.4717
     13 N         141.9828  140.1881  170.9605 N.2     1  UNL1        0.0158
     14 C         141.2655  141.4425  170.5582 C.2     1  UNL1        0.3714
     15 N         140.4400  142.4212  171.3398 N.2     1  UNL1       -0.0339
     16 C         139.9739  143.4909  170.3972 C.2     1  UNL1        0.2323
     17 C         140.5112  143.1734  169.0333 C.2     1  UNL1        0.0486
     18 C         141.3095  141.9073  169.1328 C.3     1  UNL1        0.2428
     19 C         141.4180  142.3915  162.5604 C.2     1  UNL1        0.2352
     20 O         141.7177  141.2815  161.5970 O.2     1  UNL1       -0.2737
     21 N         140.3336  143.3807  162.2512 N.am    1  UNL1       -0.3012
     22 H         140.1369  144.1092  162.8836 H       1  UNL1        0.1497
     23 C         139.5489  143.2599  160.9785 C.3     1  UNL1        0.0942
     24 C         140.0712  143.8750  159.7141 C.ar    1  UNL1       -0.0045
     25 C         139.5521  143.4125  158.3849 C.ar    1  UNL1       -0.0018
     26 C         140.0745  144.0276  157.1205 C.ar    1  UNL1        0.0111
     27 C         141.1160  145.1052  157.1853 C.ar    1  UNL1        0.0577
     28 CL        141.6384  145.7202  155.9208 Cl      1  UNL1       -0.0822
     29 C         141.6352  145.5676  158.5144 C.ar    1  UNL1        0.0111
     30 C         141.1128  144.9525  159.7789 C.ar    1  UNL1       -0.0018
     31 C         138.2418  142.5240  160.9703 C.3     1  UNL1        0.0267
     32 C         138.2045  141.0581  161.2860 C.3     1  UNL1        0.0338
     33 C         137.6944  140.5902  162.6168 C.3     1  UNL1        0.1372
     34 O         136.5729  141.3243  163.2903 O.3     1  UNL1       -0.3820
     35 H         136.8699  142.2149  163.5341 H       1  UNL1        0.2104
@<TRIPOS>BOND
     1     1     2    1
     2     2    19    1
     3    19    20    2
     4    19    21   am
     5    21    23    1
     6    23    31    1
     7    31    32    1
     8    32    33    1
     9    33    34    1
    10    23    24    1
    11    24    25   ar
    12    25    26   ar
    13    26    27   ar
    14    27    28    1
    15    27    29   ar
    16    29    30   ar
    17     2     3    1
    18     3     4    1
    19     4     5    1
    20     5    10    1
    21    10    11    2
    22    11    12    1
    23    12    13    2
    24    13    14    1
    25    14    15    2
    26    15    16    1
    27    16    17    2
    28    17    18    1
    29     5     6    1
    30     6     7    1
    31     7     2    1
    32    30    24   ar
    33    18    10    1
    34    18    14    1
    35     1     8    1
    36     1     9    1
    37    21    22    1
    38    34    35    1
@<TRIPOS>MOLECULE
*****
 35 38 0 0 0
SMALL
GASTEIGER

@<TRIPOS>ATOM
      1 N         144.5940  141.8496  162.7907 N.3     1  UNL1       -0.3162
      2 C         143.3432  142.2619  163.5086 C.3     1  UNL1        0.1166
      3 C         142.0608  142.9807  163.8066 C.3     1  UNL1        0.0739
      4 C         141.3037  142.6737  165.0645 C.3     1  UNL1        0.2039
      5 N         141.8289  141.6477  166.0245 N.pl3   1  UNL1       -0.1931
      6 C         143.1113  140.9288  165.7266 C.3     1  UNL1        0.2039
      7 C         143.8684  141.2359  164.4686 C.3     1  UNL1        0.0739
      8 H         144.6770  142.3774  161.9219 H       1  UNL1        0.1192
      9 H         144.5522  140.8524  162.5801 H       1  UNL1        0.1192
     10 C         141.0717  141.3406  167.2824 C.2     1  UNL1        0.3205
     11 N         141.4624  141.9986  168.5725 N.2     1  UNL1        0.0097
     12 C         140.7053  141.6916  169.8304 C.2     1  UNL1        0.4717
     13 N         139.5574  140.7265  169.7983 N.2     1  UNL1        0.0158
     14 C         139.1667  140.0684  168.5082 C.2     1  UNL1        0.3714
     15 N         138.0879  139.0823  168.1710 N.2     1  UNL1       -0.0339
     16 C         138.1784  138.7799  166.7046 C.2     1  UNL1        0.2323
     17 C         139.3131  139.5791  166.1355 C.2     1  UNL1        0.0486
     18 C         139.9239  140.3755  167.2503 C.3     1  UNL1        0.2428
     19 C         143.2524  143.1446  162.2993 C.2     1  UNL1        0.2352
     20 O         144.0794  144.3934  162.2184 O.2     1  UNL1       -0.2737
     21 N         142.3344  142.7786  161.1709 N.am    1  UNL1       -0.3012
     22 H         141.7916  141.9590  161.2240 H       1  UNL1        0.1497
     23 C         142.2435  143.6613  159.9615 C.3     1  UNL1        0.0942
     24 C         142.9865  143.2980  158.7102 C.ar    1  UNL1       -0.0045
     25 C         142.4214  143.6632  157.3695 C.ar    1  UNL1       -0.0018
     26 C         143.1644  143.2999  156.1182 C.ar    1  UNL1        0.0111
     27 C         144.4726  142.5713  156.2076 C.ar    1  UNL1        0.0577
     28 CL        145.2156  142.2080  154.9561 Cl      1  UNL1       -0.0822
     29 C         145.0377  142.2061  157.5481 C.ar    1  UNL1        0.0111
     30 C         144.2947  142.5695  158.7995 C.ar    1  UNL1       -0.0018
     31 C         141.4095  144.9074  160.0036 C.3     1  UNL1        0.0267
     32 C         140.1620  144.9473  160.8357 C.3     1  UNL1        0.0338
     33 C         140.0043  145.9912  161.9012 C.3     1  UNL1        0.1372
     34 O         141.0776  146.1788  162.9320 O.3     1  UNL1       -0.3820
     35 H         141.1337  145.3861  163.4883 H       1  UNL1        0.2104
@<TRIPOS>BOND
     1     1     2    1
     2     2    19    1
     3    19    20    2
     4    19    21   am
     5    21    23    1
     6    23    31    1
     7    31    32    1
     8    32    33    1
     9    33    34    1
    10    23    24    1
    11    24    25   ar
    12    25    26   ar
    13    26    27   ar
    14    27    28    1
    15    27    29   ar
    16    29    30   ar
    17     2     3    1
    18     3     4    1
    19     4     5    1
    20     5    10    1
    21    10    11    2
    22    11    12    1
    23    12    13    2
    24    13    14    1
    25    14    15    2
    26    15    16    1
    27    16    17    2
    28    17    18    1
    29     5     6    1
    30     6     7    1
    31     7     2    1
    32    30    24   ar
    33    18    10    1
    34    18    14    1
    35     1     8    1
    36     1     9    1
    37    21    22    1
    38    34    35    1
