@<TRIPOS>MOLECULE
*****
 29 32 0 0 0
SMALL
GASTEIGER

@<TRIPOS>ATOM
      1 C         139.1769  141.6886  164.7443 C.ar    1  UNL1        0.0681
      2 C         137.9503  142.5123  164.4861 C.ar    1  UNL1        0.0208
      3 C         137.6134  142.9381  163.0878 C.ar    1  UNL1        0.0384
      4 C         138.5033  142.5401  161.9478 C.ar    1  UNL1        0.1386
      5 C         139.7300  141.7164  162.2060 C.ar    1  UNL1        0.0384
      6 C         140.0668  141.2906  163.6043 C.ar    1  UNL1        0.0208
      7 C         138.0552  139.1334  165.8455 C.3     1  UNL1        0.0723
      8 C         138.9529  139.9852  166.6933 C.ar    1  UNL1        0.1268
      9 N         139.2896  139.5594  168.0916 N.ar    1  UNL1       -0.2318
     10 C         140.1873  140.4112  168.9394 C.ar    1  UNL1        0.0872
     11 C         140.5240  139.9854  170.3377 C.ar    1  UNL1        0.0193
     12 C         141.4216  140.8372  171.1854 C.ar    1  UNL1        0.0015
     13 C         141.9825  142.1148  170.6348 C.ar    1  UNL1        0.0003
     14 C         141.6458  142.5406  169.2365 C.ar    1  UNL1        0.0063
     15 C         140.7481  141.6888  168.3888 C.ar    1  UNL1        0.0742
     16 C         140.4114  142.1146  166.9904 C.ar    1  UNL1        0.2669
     17 O         140.9722  143.3922  166.4398 O.2     1  UNL1       -0.2665
     18 N         139.5137  141.2628  166.1427 N.ar    1  UNL1       -0.2626
     19 O         138.1665  142.9659  160.5494 O.3     1  UNL1       -0.4754
     20 C         139.1543  142.7503  159.4414 C.3     1  UNL1        0.2068
     21 C         139.9320  143.9101  158.8937 C.3     1  UNL1        0.0646
     22 C         140.2346  145.0903  159.7686 C.3     1  UNL1        0.0759
     23 N         141.0522  144.9111  161.0133 N.3     1  UNL1       -0.2726
     24 C         140.5883  145.5099  162.3081 C.3     1  UNL1        0.0721
     25 C         141.4060  145.3306  163.5528 C.3     1  UNL1        0.0174
     26 C         142.6875  144.5526  163.5028 C.3     1  UNL1        0.0028
     27 C         143.1513  143.9539  162.2081 C.3     1  UNL1        0.0160
     28 C         144.4329  143.1758  162.1582 C.3     1  UNL1        0.0014
     29 C         142.3337  144.1331  160.9634 C.3     1  UNL1        0.0720
@<TRIPOS>BOND
     1     7     8    1
     2     8     9   ar
     3     9    10   ar
     4    10    11   ar
     5    11    12   ar
     6    12    13   ar
     7    13    14   ar
     8    14    15   ar
     9    15    16   ar
    10    16    17    2
    11    16    18   ar
    12    18     1    1
    13     1     2   ar
    14     2     3   ar
    15     3     4   ar
    16     4    19    1
    17    19    20    1
    18    20    21    1
    19    21    22    1
    20    22    23    1
    21    23    24    1
    22    24    25    1
    23    25    26    1
    24    26    27    1
    25    27    28    1
    26    27    29    1
    27     4     5   ar
    28     5     6   ar
    29    18     8   ar
    30     6     1   ar
    31    15    10   ar
    32    29    23    1
@<TRIPOS>MOLECULE
*****
 29 32 0 0 0
SMALL
GASTEIGER

@<TRIPOS>ATOM
      1 C         139.2367  139.8361  164.4302 C.ar    1  UNL1        0.0681
      2 C         140.3834  139.2075  163.6953 C.ar    1  UNL1        0.0208
      3 C         140.2596  138.9028  162.2319 C.ar    1  UNL1        0.0384
      4 C         138.9891  139.2266  161.5033 C.ar    1  UNL1        0.1386
      5 C         137.8424  139.8552  162.2382 C.ar    1  UNL1        0.0384
      6 C         137.9662  140.1599  163.7016 C.ar    1  UNL1        0.0208
      7 C         138.0095  137.9939  166.4551 C.3     1  UNL1        0.0723
      8 C         138.7470  139.2197  166.9062 C.ar    1  UNL1        0.1268
      9 N         138.8709  139.5244  168.3696 N.ar    1  UNL1       -0.2318
     10 C         139.6084  140.7503  168.8207 C.ar    1  UNL1        0.0872
     11 C         139.7322  141.0550  170.2842 C.ar    1  UNL1        0.0193
     12 C         140.4697  142.2808  170.7352 C.ar    1  UNL1        0.0015
     13 C         141.0833  143.2019  169.7228 C.ar    1  UNL1        0.0003
     14 C         140.9595  142.8972  168.2593 C.ar    1  UNL1        0.0063
     15 C         140.2220  141.6714  167.8083 C.ar    1  UNL1        0.0742
     16 C         140.0981  141.3667  166.3448 C.ar    1  UNL1        0.2669
     17 O         140.7117  142.2878  165.3323 O.2     1  UNL1       -0.2665
     18 N         139.3606  140.1409  165.8937 N.ar    1  UNL1       -0.2626
     19 O         138.8652  138.9218  160.0398 O.3     1  UNL1       -0.4754
     20 C         138.9028  140.0358  159.0359 C.3     1  UNL1        0.2068
     21 C         139.5021  141.3598  159.4069 C.3     1  UNL1        0.0646
     22 C         138.6111  142.5207  159.7359 C.3     1  UNL1        0.0759
     23 N         138.9643  143.4404  160.8670 N.3     1  UNL1       -0.2726
     24 C         140.0654  144.4453  160.7007 C.3     1  UNL1        0.0721
     25 C         140.4186  145.3650  161.8318 C.3     1  UNL1        0.0174
     26 C         139.6707  145.2798  163.1293 C.3     1  UNL1        0.0028
     27 C         138.5696  144.2748  163.2956 C.3     1  UNL1        0.0160
     28 C         137.8217  144.1895  164.5931 C.3     1  UNL1        0.0014
     29 C         138.2164  143.3551  162.1645 C.3     1  UNL1        0.0720
@<TRIPOS>BOND
     1     7     8    1
     2     8     9   ar
     3     9    10   ar
     4    10    11   ar
     5    11    12   ar
     6    12    13   ar
     7    13    14   ar
     8    14    15   ar
     9    15    16   ar
    10    16    17    2
    11    16    18   ar
    12    18     1    1
    13     1     2   ar
    14     2     3   ar
    15     3     4   ar
    16     4    19    1
    17    19    20    1
    18    20    21    1
    19    21    22    1
    20    22    23    1
    21    23    24    1
    22    24    25    1
    23    25    26    1
    24    26    27    1
    25    27    28    1
    26    27    29    1
    27     4     5   ar
    28     5     6   ar
    29    18     8   ar
    30     6     1   ar
    31    15    10   ar
    32    29    23    1
@<TRIPOS>MOLECULE
*****
 29 32 0 0 0
SMALL
GASTEIGER

@<TRIPOS>ATOM
      1 C         139.1756  141.5895  164.7285 C.ar    1  UNL1        0.0681
      2 C         137.8699  142.2618  164.4235 C.ar    1  UNL1        0.0208
      3 C         137.5351  142.6448  163.0124 C.ar    1  UNL1        0.0384
      4 C         138.5060  142.3556  161.9063 C.ar    1  UNL1        0.1386
      5 C         139.8118  141.6833  162.2113 C.ar    1  UNL1        0.0384
      6 C         140.1466  141.3003  163.6224 C.ar    1  UNL1        0.0208
      7 C         138.1058  139.0358  165.8836 C.3     1  UNL1        0.0723
      8 C         138.9755  139.9296  166.7172 C.ar    1  UNL1        0.1268
      9 N         139.3102  139.5466  168.1283 N.ar    1  UNL1       -0.2318
     10 C         140.1799  140.4404  168.9619 C.ar    1  UNL1        0.0872
     11 C         140.5147  140.0573  170.3729 C.ar    1  UNL1        0.0193
     12 C         141.3843  140.9511  171.2065 C.ar    1  UNL1        0.0015
     13 C         141.9192  142.2279  170.6289 C.ar    1  UNL1        0.0003
     14 C         141.5845  142.6110  169.2178 C.ar    1  UNL1        0.0063
     15 C         140.7149  141.7172  168.3843 C.ar    1  UNL1        0.0742
     16 C         140.3801  142.1002  166.9732 C.ar    1  UNL1        0.2669
     17 O         140.9150  143.3771  166.3956 O.2     1  UNL1       -0.2665
     18 N         139.5104  141.2065  166.1396 N.ar    1  UNL1       -0.2626
     19 O         138.1713  142.7386  160.4952 O.3     1  UNL1       -0.4754
     20 C         138.7058  141.9287  159.3513 C.3     1  UNL1        0.2068
     21 C         138.1490  140.5638  159.0740 C.3     1  UNL1        0.0646
     22 C         139.0635  139.3757  159.0285 C.3     1  UNL1        0.0759
     23 N         139.5949  138.7891  160.3026 N.3     1  UNL1       -0.2726
     24 C         138.6459  138.2958  161.3543 C.3     1  UNL1        0.0721
     25 C         139.1774  137.7091  162.6285 C.3     1  UNL1        0.0174
     26 C         140.6578  137.6157  162.8509 C.3     1  UNL1        0.0028
     27 C         141.6069  138.1090  161.7992 C.3     1  UNL1        0.0160
     28 C         143.0874  138.0155  162.0216 C.3     1  UNL1        0.0014
     29 C         141.0754  138.6956  160.5251 C.3     1  UNL1        0.0720
@<TRIPOS>BOND
     1     7     8    1
     2     8     9   ar
     3     9    10   ar
     4    10    11   ar
     5    11    12   ar
     6    12    13   ar
     7    13    14   ar
     8    14    15   ar
     9    15    16   ar
    10    16    17    2
    11    16    18   ar
    12    18     1    1
    13     1     2   ar
    14     2     3   ar
    15     3     4   ar
    16     4    19    1
    17    19    20    1
    18    20    21    1
    19    21    22    1
    20    22    23    1
    21    23    24    1
    22    24    25    1
    23    25    26    1
    24    26    27    1
    25    27    28    1
    26    27    29    1
    27     4     5   ar
    28     5     6   ar
    29    18     8   ar
    30     6     1   ar
    31    15    10   ar
    32    29    23    1
@<TRIPOS>MOLECULE
*****
 29 32 0 0 0
SMALL
GASTEIGER

@<TRIPOS>ATOM
      1 C         142.9449  139.9784  164.6454 C.ar    1  UNL1        0.0681
      2 C         141.9653  139.2862  163.7448 C.ar    1  UNL1        0.0208
      3 C         142.2879  139.0935  162.2927 C.ar    1  UNL1        0.0384
      4 C         143.5903  139.5931  161.7411 C.ar    1  UNL1        0.1386
      5 C         144.5699  140.2854  162.6417 C.ar    1  UNL1        0.0384
      6 C         144.2472  140.4781  164.0938 C.ar    1  UNL1        0.0208
      7 C         143.8333  137.9429  166.6622 C.3     1  UNL1        0.0723
      8 C         143.0664  139.1533  167.1060 C.ar    1  UNL1        0.1268
      9 N         142.7437  139.3459  168.5581 N.ar    1  UNL1       -0.2318
     10 C         141.9767  140.5563  169.0019 C.ar    1  UNL1        0.0872
     11 C         141.6541  140.7489  170.4540 C.ar    1  UNL1        0.0193
     12 C         140.8872  141.9592  170.8978 C.ar    1  UNL1        0.0015
     13 C         140.4430  142.9770  169.8894 C.ar    1  UNL1        0.0003
     14 C         140.7657  142.7844  168.4372 C.ar    1  UNL1        0.0063
     15 C         141.5326  141.5741  167.9935 C.ar    1  UNL1        0.0742
     16 C         141.8553  141.3814  166.5413 C.ar    1  UNL1        0.2669
     17 O         141.4111  142.3992  165.5329 O.2     1  UNL1       -0.2665
     18 N         142.6222  140.1711  166.0976 N.ar    1  UNL1       -0.2626
     19 O         143.9130  139.4005  160.2889 O.3     1  UNL1       -0.4754
     20 C         143.8446  140.5640  159.3447 C.3     1  UNL1        0.2068
     21 C         143.0542  141.7842  159.7140 C.3     1  UNL1        0.0646
     22 C         143.7605  143.0226  160.1803 C.3     1  UNL1        0.0759
     23 N         143.2355  143.7865  161.3596 N.3     1  UNL1       -0.2726
     24 C         144.1349  144.0807  162.5234 C.3     1  UNL1        0.0721
     25 C         143.6098  144.8446  163.7027 C.3     1  UNL1        0.0174
     26 C         142.1853  145.3142  163.7182 C.3     1  UNL1        0.0028
     27 C         141.2859  145.0200  162.5544 C.3     1  UNL1        0.0160
     28 C         139.8613  145.4897  162.5699 C.3     1  UNL1        0.0014
     29 C         141.8109  144.2561  161.3751 C.3     1  UNL1        0.0720
@<TRIPOS>BOND
     1     7     8    1
     2     8     9   ar
     3     9    10   ar
     4    10    11   ar
     5    11    12   ar
     6    12    13   ar
     7    13    14   ar
     8    14    15   ar
     9    15    16   ar
    10    16    17    2
    11    16    18   ar
    12    18     1    1
    13     1     2   ar
    14     2     3   ar
    15     3     4   ar
    16     4    19    1
    17    19    20    1
    18    20    21    1
    19    21    22    1
    20    22    23    1
    21    23    24    1
    22    24    25    1
    23    25    26    1
    24    26    27    1
    25    27    28    1
    26    27    29    1
    27     4     5   ar
    28     5     6   ar
    29    18     8   ar
    30     6     1   ar
    31    15    10   ar
    32    29    23    1
@<TRIPOS>MOLECULE
*****
 29 32 0 0 0
SMALL
GASTEIGER

@<TRIPOS>ATOM
      1 C         139.2321  139.1677  164.4686 C.ar    1  UNL1        0.0681
      2 C         139.7729  140.3706  165.1832 C.ar    1  UNL1        0.0208
      3 C         139.5576  140.5256  166.6595 C.ar    1  UNL1        0.0384
      4 C         138.8016  139.4777  167.4213 C.ar    1  UNL1        0.1386
      5 C         138.2608  138.2748  166.7067 C.ar    1  UNL1        0.0384
      6 C         138.4761  138.1198  165.2303 C.ar    1  UNL1        0.0208
      7 C         141.2709  137.2186  163.4466 C.3     1  UNL1        0.0723
      8 C         140.4668  138.0382  162.4812 C.ar    1  UNL1        0.1268
      9 N         140.6822  137.8832  161.0049 N.ar    1  UNL1       -0.2318
     10 C         139.8782  138.7028  160.0395 C.ar    1  UNL1        0.0872
     11 C         140.0935  138.5478  158.5632 C.ar    1  UNL1        0.0193
     12 C         139.2895  139.3674  157.5979 C.ar    1  UNL1        0.0015
     13 C         138.2701  140.3419  158.1089 C.ar    1  UNL1        0.0003
     14 C         138.0548  140.4969  159.5852 C.ar    1  UNL1        0.0063
     15 C         138.8588  139.6774  160.5505 C.ar    1  UNL1        0.0742
     16 C         138.6435  139.8323  162.0269 C.ar    1  UNL1        0.2669
     17 O         137.6241  140.8069  162.5380 O.2     1  UNL1       -0.2665
     18 N         139.4475  139.0128  162.9922 N.ar    1  UNL1       -0.2626
     19 O         138.5862  139.6327  168.8977 O.3     1  UNL1       -0.4754
     20 C         139.4747  140.5420  169.6938 C.3     1  UNL1        0.2068
     21 C         140.7087  139.9984  170.3507 C.3     1  UNL1        0.0646
     22 C         142.0593  140.5187  169.9567 C.3     1  UNL1        0.0759
     23 N         142.4989  140.4550  168.5241 N.3     1  UNL1       -0.2726
     24 C         142.6892  139.1254  167.8564 C.3     1  UNL1        0.0721
     25 C         143.1288  139.0617  166.4236 C.3     1  UNL1        0.0174
     26 C         143.3781  140.3276  165.6586 C.3     1  UNL1        0.0028
     27 C         143.1878  141.6573  166.3263 C.3     1  UNL1        0.0160
     28 C         143.4372  142.9232  165.5613 C.3     1  UNL1        0.0014
     29 C         142.7482  141.7210  167.7590 C.3     1  UNL1        0.0720
@<TRIPOS>BOND
     1     7     8    1
     2     8     9   ar
     3     9    10   ar
     4    10    11   ar
     5    11    12   ar
     6    12    13   ar
     7    13    14   ar
     8    14    15   ar
     9    15    16   ar
    10    16    17    2
    11    16    18   ar
    12    18     1    1
    13     1     2   ar
    14     2     3   ar
    15     3     4   ar
    16     4    19    1
    17    19    20    1
    18    20    21    1
    19    21    22    1
    20    22    23    1
    21    23    24    1
    22    24    25    1
    23    25    26    1
    24    26    27    1
    25    27    28    1
    26    27    29    1
    27     4     5   ar
    28     5     6   ar
    29    18     8   ar
    30     6     1   ar
    31    15    10   ar
    32    29    23    1
@<TRIPOS>MOLECULE
*****
 29 32 0 0 0
SMALL
GASTEIGER

@<TRIPOS>ATOM
      1 C         140.7793  139.0648  164.8226 C.ar    1  UNL1        0.0681
      2 C         141.2007  139.9351  163.6759 C.ar    1  UNL1        0.0208
      3 C         140.7324  139.6227  162.2856 C.ar    1  UNL1        0.0384
      4 C         139.8427  138.4400  162.0419 C.ar    1  UNL1        0.1386
      5 C         139.4212  137.5696  163.1886 C.ar    1  UNL1        0.0384
      6 C         139.8895  137.8820  164.5789 C.ar    1  UNL1        0.0208
      7 C         143.5281  138.2432  165.6996 C.3     1  UNL1        0.0723
      8 C         142.6220  138.9664  166.6515 C.ar    1  UNL1        0.1268
      9 N         143.0904  139.2788  168.0418 N.ar    1  UNL1       -0.2318
     10 C         142.1843  140.0021  168.9937 C.ar    1  UNL1        0.0872
     11 C         142.6527  140.3145  170.3840 C.ar    1  UNL1        0.0193
     12 C         141.7466  141.0377  171.3358 C.ar    1  UNL1        0.0015
     13 C         140.3722  141.4485  170.8973 C.ar    1  UNL1        0.0003
     14 C         139.9039  141.1361  169.5070 C.ar    1  UNL1        0.0063
     15 C         140.8099  140.4129  168.5552 C.ar    1  UNL1        0.0742
     16 C         140.3416  140.1004  167.1648 C.ar    1  UNL1        0.2669
     17 O         138.9672  140.5112  166.7263 O.2     1  UNL1       -0.2665
     18 N         141.2476  139.3772  166.2130 N.ar    1  UNL1       -0.2626
     19 O         139.3744  138.1275  160.6515 O.3     1  UNL1       -0.4754
     20 C         139.0549  139.2418  159.6996 C.3     1  UNL1        0.2068
     21 C         137.9917  140.2419  160.0452 C.3     1  UNL1        0.0646
     22 C         138.3570  141.6806  160.2611 C.3     1  UNL1        0.0759
     23 N         138.4780  142.2228  161.6544 N.3     1  UNL1       -0.2726
     24 C         137.5476  141.7437  162.7290 C.3     1  UNL1        0.0721
     25 C         137.6685  142.2860  164.1224 C.3     1  UNL1        0.0174
     26 C         138.7198  143.3073  164.4410 C.3     1  UNL1        0.0028
     27 C         139.6502  143.7865  163.3664 C.3     1  UNL1        0.0160
     28 C         140.7015  144.8079  163.6851 C.3     1  UNL1        0.0014
     29 C         139.5293  143.2442  161.9731 C.3     1  UNL1        0.0720
@<TRIPOS>BOND
     1     7     8    1
     2     8     9   ar
     3     9    10   ar
     4    10    11   ar
     5    11    12   ar
     6    12    13   ar
     7    13    14   ar
     8    14    15   ar
     9    15    16   ar
    10    16    17    2
    11    16    18   ar
    12    18     1    1
    13     1     2   ar
    14     2     3   ar
    15     3     4   ar
    16     4    19    1
    17    19    20    1
    18    20    21    1
    19    21    22    1
    20    22    23    1
    21    23    24    1
    22    24    25    1
    23    25    26    1
    24    26    27    1
    25    27    28    1
    26    27    29    1
    27     4     5   ar
    28     5     6   ar
    29    18     8   ar
    30     6     1   ar
    31    15    10   ar
    32    29    23    1
@<TRIPOS>MOLECULE
*****
 29 32 0 0 0
SMALL
GASTEIGER

@<TRIPOS>ATOM
      1 C         140.7053  139.2171  164.6499 C.ar    1  UNL1        0.0681
      2 C         140.7009  137.7995  164.1596 C.ar    1  UNL1        0.0208
      3 C         140.8394  137.5123  162.6939 C.ar    1  UNL1        0.0384
      4 C         140.9822  138.6428  161.7185 C.ar    1  UNL1        0.1386
      5 C         140.9866  140.0604  162.2087 C.ar    1  UNL1        0.0384
      6 C         140.8481  140.3476  163.6744 C.ar    1  UNL1        0.0208
      7 C         138.0090  139.0769  165.9576 C.3     1  UNL1        0.0723
      8 C         139.2187  139.4341  166.7696 C.ar    1  UNL1        0.1268
      9 N         139.0802  139.7211  168.2353 N.ar    1  UNL1       -0.2318
     10 C         140.2899  140.0783  169.0472 C.ar    1  UNL1        0.0872
     11 C         140.1514  140.3654  170.5129 C.ar    1  UNL1        0.0193
     12 C         141.3610  140.7225  171.3248 C.ar    1  UNL1        0.0015
     13 C         142.7092  140.7926  170.6709 C.ar    1  UNL1        0.0003
     14 C         142.8477  140.5055  169.2052 C.ar    1  UNL1        0.0063
     15 C         141.6380  140.1484  168.3933 C.ar    1  UNL1        0.0742
     16 C         141.7765  139.8613  166.9275 C.ar    1  UNL1        0.2669
     17 O         143.1247  139.9314  166.2737 O.2     1  UNL1       -0.2665
     18 N         140.5669  139.5041  166.1157 N.ar    1  UNL1       -0.2626
     19 O         141.1207  138.3557  160.2527 O.3     1  UNL1       -0.4754
     20 C         139.9719  138.6196  159.3250 C.3     1  UNL1        0.2068
     21 C         139.7062  140.0131  158.8376 C.3     1  UNL1        0.0646
     22 C         138.4094  140.6896  159.1702 C.3     1  UNL1        0.0759
     23 N         138.1962  141.2723  160.5358 N.3     1  UNL1       -0.2726
     24 C         137.5255  140.4582  161.6023 C.3     1  UNL1        0.0721
     25 C         137.3123  141.0410  162.9680 C.3     1  UNL1        0.0174
     26 C         137.7698  142.4379  163.2671 C.3     1  UNL1        0.0028
     27 C         138.4405  143.2520  162.2006 C.3     1  UNL1        0.0160
     28 C         138.8979  144.6489  162.4997 C.3     1  UNL1        0.0014
     29 C         138.6537  142.6692  160.8350 C.3     1  UNL1        0.0720
@<TRIPOS>BOND
     1     7     8    1
     2     8     9   ar
     3     9    10   ar
     4    10    11   ar
     5    11    12   ar
     6    12    13   ar
     7    13    14   ar
     8    14    15   ar
     9    15    16   ar
    10    16    17    2
    11    16    18   ar
    12    18     1    1
    13     1     2   ar
    14     2     3   ar
    15     3     4   ar
    16     4    19    1
    17    19    20    1
    18    20    21    1
    19    21    22    1
    20    22    23    1
    21    23    24    1
    22    24    25    1
    23    25    26    1
    24    26    27    1
    25    27    28    1
    26    27    29    1
    27     4     5   ar
    28     5     6   ar
    29    18     8   ar
    30     6     1   ar
    31    15    10   ar
    32    29    23    1
@<TRIPOS>MOLECULE
*****
 29 32 0 0 0
SMALL
GASTEIGER

@<TRIPOS>ATOM
      1 C         139.5282  139.3383  164.9343 C.ar    1  UNL1        0.0681
      2 C         140.1638  138.0660  164.4574 C.ar    1  UNL1        0.0208
      3 C         139.9420  137.5988  163.0494 C.ar    1  UNL1        0.0384
      4 C         139.0848  138.4038  162.1183 C.ar    1  UNL1        0.1386
      5 C         138.4493  139.6761  162.5952 C.ar    1  UNL1        0.0384
      6 C         138.6710  140.1433  164.0032 C.ar    1  UNL1        0.0208
      7 C         137.6421  138.4944  167.1093 C.3     1  UNL1        0.0723
      8 C         138.8069  139.3835  167.4299 C.ar    1  UNL1        0.1268
      9 N         139.0286  139.8507  168.8379 N.ar    1  UNL1       -0.2318
     10 C         140.1934  140.7398  169.1585 C.ar    1  UNL1        0.0872
     11 C         140.4152  141.2070  170.5665 C.ar    1  UNL1        0.0193
     12 C         141.5799  142.0960  170.8871 C.ar    1  UNL1        0.0015
     13 C         142.5230  142.5180  169.7996 C.ar    1  UNL1        0.0003
     14 C         142.3013  142.0508  168.3916 C.ar    1  UNL1        0.0063
     15 C         141.1365  141.1618  168.0710 C.ar    1  UNL1        0.0742
     16 C         140.9147  140.6946  166.6629 C.ar    1  UNL1        0.2669
     17 O         141.8578  141.1165  165.5755 O.2     1  UNL1       -0.2665
     18 N         139.7500  139.8055  166.3424 N.ar    1  UNL1       -0.2626
     19 O         138.8630  137.9366  160.7102 O.3     1  UNL1       -0.4754
     20 C         139.6442  138.5484  159.5853 C.3     1  UNL1        0.2068
     21 C         141.1318  138.7020  159.7017 C.3     1  UNL1        0.0646
     22 C         141.7213  140.0276  160.0830 C.3     1  UNL1        0.0759
     23 N         142.6869  140.1177  161.2273 N.3     1  UNL1       -0.2726
     24 C         143.1749  138.8674  161.8972 C.3     1  UNL1        0.0721
     25 C         144.1405  138.9576  163.0415 C.3     1  UNL1        0.0174
     26 C         144.6182  140.2980  163.5160 C.3     1  UNL1        0.0028
     27 C         144.1302  141.5483  162.8461 C.3     1  UNL1        0.0160
     28 C         144.6079  142.8887  163.3206 C.3     1  UNL1        0.0014
     29 C         143.1646  141.4581  161.7018 C.3     1  UNL1        0.0720
@<TRIPOS>BOND
     1     7     8    1
     2     8     9   ar
     3     9    10   ar
     4    10    11   ar
     5    11    12   ar
     6    12    13   ar
     7    13    14   ar
     8    14    15   ar
     9    15    16   ar
    10    16    17    2
    11    16    18   ar
    12    18     1    1
    13     1     2   ar
    14     2     3   ar
    15     3     4   ar
    16     4    19    1
    17    19    20    1
    18    20    21    1
    19    21    22    1
    20    22    23    1
    21    23    24    1
    22    24    25    1
    23    25    26    1
    24    26    27    1
    25    27    28    1
    26    27    29    1
    27     4     5   ar
    28     5     6   ar
    29    18     8   ar
    30     6     1   ar
    31    15    10   ar
    32    29    23    1
@<TRIPOS>MOLECULE
*****
 29 32 0 0 0
SMALL
GASTEIGER

@<TRIPOS>ATOM
      1 C         143.0317  139.6556  164.6351 C.ar    1  UNL1        0.0681
      2 C         144.1488  140.4096  163.9766 C.ar    1  UNL1        0.0208
      3 C         144.5016  140.1295  162.5459 C.ar    1  UNL1        0.0384
      4 C         143.7374  139.0953  161.7737 C.ar    1  UNL1        0.1386
      5 C         142.6204  138.3412  162.4322 C.ar    1  UNL1        0.0384
      6 C         142.2675  138.6214  163.8629 C.ar    1  UNL1        0.0208
      7 C         143.9374  137.7838  166.7975 C.3     1  UNL1        0.0723
      8 C         143.1317  138.9999  167.1471 C.ar    1  UNL1        0.1268
      9 N         142.7790  139.2801  168.5778 N.ar    1  UNL1       -0.2318
     10 C         141.9733  140.4962  168.9274 C.ar    1  UNL1        0.0872
     11 C         141.6206  140.7764  170.3581 C.ar    1  UNL1        0.0193
     12 C         140.8150  141.9924  170.7076 C.ar    1  UNL1        0.0015
     13 C         140.3622  142.9283  169.6263 C.ar    1  UNL1        0.0003
     14 C         140.7149  142.6482  168.1956 C.ar    1  UNL1        0.0063
     15 C         141.5205  141.4321  167.8461 C.ar    1  UNL1        0.0742
     16 C         141.8733  141.1519  166.4153 C.ar    1  UNL1        0.2669
     17 O         141.4205  142.0878  165.3341 O.2     1  UNL1       -0.2665
     18 N         142.6789  139.9358  166.0659 N.ar    1  UNL1       -0.2626
     19 O         144.0902  138.8151  160.3429 O.3     1  UNL1       -0.4754
     20 C         143.6143  139.7361  159.2588 C.3     1  UNL1        0.2068
     21 C         142.1698  139.7355  158.8547 C.3     1  UNL1        0.0646
     22 C         141.1872  140.6050  159.5816 C.3     1  UNL1        0.0759
     23 N         140.2389  139.9985  160.5729 N.3     1  UNL1       -0.2726
     24 C         139.7083  138.6129  160.3525 C.3     1  UNL1        0.0721
     25 C         138.7600  138.0064  161.3439 C.3     1  UNL1        0.0174
     26 C         138.3422  138.7855  162.5557 C.3     1  UNL1        0.0028
     27 C         138.8728  140.1711  162.7761 C.3     1  UNL1        0.0160
     28 C         138.4549  140.9502  163.9879 C.3     1  UNL1        0.0014
     29 C         139.8211  140.7776  161.7848 C.3     1  UNL1        0.0720
@<TRIPOS>BOND
     1     7     8    1
     2     8     9   ar
     3     9    10   ar
     4    10    11   ar
     5    11    12   ar
     6    12    13   ar
     7    13    14   ar
     8    14    15   ar
     9    15    16   ar
    10    16    17    2
    11    16    18   ar
    12    18     1    1
    13     1     2   ar
    14     2     3   ar
    15     3     4   ar
    16     4    19    1
    17    19    20    1
    18    20    21    1
    19    21    22    1
    20    22    23    1
    21    23    24    1
    22    24    25    1
    23    25    26    1
    24    26    27    1
    25    27    28    1
    26    27    29    1
    27     4     5   ar
    28     5     6   ar
    29    18     8   ar
    30     6     1   ar
    31    15    10   ar
    32    29    23    1
