@<TRIPOS>MOLECULE
*****
 30 33 0 0 0
SMALL
GASTEIGER

@<TRIPOS>ATOM
      1 C         138.9178  143.4918  162.4678 C.2     1  UNL1        0.2881
      2 O         137.9719  143.1183  161.3652 O.2     1  UNL1       -0.2664
      3 N         139.0196  142.6314  163.6923 N.am    1  UNL1       -0.2717
      4 C         139.9655  143.0050  164.7949 C.3     1  UNL1        0.1153
      5 C         140.0673  142.1446  166.0194 C.3     1  UNL1        0.1152
      6 N         139.2232  140.9107  166.1412 N.am    1  UNL1       -0.2726
      7 C         139.3249  140.0502  167.3657 C.2     1  UNL1        0.2491
      8 O         138.4808  138.8163  167.4876 O.2     1  UNL1       -0.2699
      9 C         138.2773  140.5372  165.0386 C.3     1  UNL1        0.1135
     10 C         138.1755  141.3975  163.8141 C.3     1  UNL1        0.0956
     11 C         137.2295  141.0240  162.7116 C.3     1  UNL1        0.0233
     12 C         140.2708  140.4238  168.4683 C.ar    1  UNL1        0.0536
     13 C         141.6955  139.9566  168.4247 C.ar    1  UNL1        0.0045
     14 C         142.6414  140.3302  169.5273 C.ar    1  UNL1        0.0001
     15 C         142.1627  141.1710  170.6735 C.ar    1  UNL1        0.0000
     16 C         140.7380  141.6381  170.7171 C.ar    1  UNL1        0.0001
     17 C         139.7921  141.2646  169.6145 C.ar    1  UNL1        0.0045
     18 C         139.7619  144.7258  162.3459 C.2     1  UNL1        0.2494
     19 O         139.1402  146.0198  161.9114 O.2     1  UNL1       -0.2819
     20 C         142.1642  143.0129  160.6830 C.2     1  UNL1        0.1360
     21 C         143.3956  142.3579  160.1312 C.2     1  UNL1        0.0837
     22 C         144.7241  142.5825  160.7905 C.2     1  UNL1        0.2385
     23 N         144.8211  143.4620  162.0017 N.2     1  UNL1       -0.0338
     24 C         143.5897  144.1170  162.5535 C.2     1  UNL1        0.3626
     25 N         143.3772  145.0290  163.7253 N.2     1  UNL1       -0.0341
     26 C         141.9175  145.3681  163.7902 C.2     1  UNL1        0.2356
     27 C         141.2278  144.6656  162.6585 C.2     1  UNL1        0.0868
     28 C         142.2612  143.8924  161.8941 C.3     1  UNL1        0.1975
     29 C         140.4393  143.6131  158.8352 C.3     1  UNL1        0.2520
     30 O         140.8357  142.7883  160.0236 O.2     1  UNL1       -0.4746
@<TRIPOS>BOND
     1    29    30    1
     2    30    20    1
     3    20    21    2
     4    21    22    1
     5    22    23    2
     6    23    24    1
     7    24    25    2
     8    25    26    1
     9    26    27    2
    10    27    18    1
    11    18    19    2
    12    18     1    1
    13     1     2    2
    14     1     3   am
    15     3     4    1
    16     4     5    1
    17     5     6    1
    18     6     7   am
    19     7     8    2
    20     7    12    1
    21    12    13   ar
    22    13    14   ar
    23    14    15   ar
    24    15    16   ar
    25    16    17   ar
    26     6     9    1
    27     9    10    1
    28    10    11    1
    29    27    28    1
    30    28    20    1
    31    28    24    1
    32    10     3    1
    33    17    12   ar
@<TRIPOS>MOLECULE
*****
 30 33 0 0 0
SMALL
GASTEIGER

@<TRIPOS>ATOM
      1 C         140.0841  139.7149  161.8934 C.2     1  UNL1        0.2881
      2 O         140.6371  138.7007  160.9366 O.2     1  UNL1       -0.2664
      3 N         140.5603  139.7421  163.3155 N.am    1  UNL1       -0.2717
      4 C         140.0072  140.7563  164.2723 C.3     1  UNL1        0.1153
      5 C         140.4835  140.7836  165.6945 C.3     1  UNL1        0.1152
      6 N         141.5127  139.7967  166.1597 N.am    1  UNL1       -0.2726
      7 C         141.9890  139.8239  167.5818 C.2     1  UNL1        0.2491
      8 O         143.0183  138.8369  168.0472 O.2     1  UNL1       -0.2699
      9 C         142.0658  138.7825  165.2029 C.3     1  UNL1        0.1135
     10 C         141.5896  138.7552  163.7807 C.3     1  UNL1        0.0956
     11 C         142.1426  137.7410  162.8239 C.3     1  UNL1        0.0233
     12 C         141.4360  140.8380  168.5387 C.ar    1  UNL1        0.0536
     13 C         142.1802  142.1159  168.7902 C.ar    1  UNL1        0.0045
     14 C         141.6271  143.1300  169.7471 C.ar    1  UNL1        0.0001
     15 C         140.3298  142.8664  170.4524 C.ar    1  UNL1        0.0000
     16 C         139.5856  141.5886  170.2008 C.ar    1  UNL1        0.0001
     17 C         140.1387  140.5744  169.2440 C.ar    1  UNL1        0.0045
     18 C         139.0547  140.7018  161.4281 C.2     1  UNL1        0.2494
     19 O         137.6118  140.5063  161.7879 O.2     1  UNL1       -0.2819
     20 C         139.0376  143.9653  162.3334 C.2     1  UNL1        0.1360
     21 C         139.1249  145.4550  162.4855 C.2     1  UNL1        0.0837
     22 C         139.6201  146.2973  161.3474 C.2     1  UNL1        0.2385
     23 N         140.0279  145.6500  160.0572 N.2     1  UNL1       -0.0338
     24 C         139.9406  144.1603  159.9052 C.2     1  UNL1        0.3626
     25 N         140.2696  143.2472  158.7615 N.2     1  UNL1       -0.0341
     26 C         139.9778  141.8405  159.1928 C.2     1  UNL1        0.2356
     27 C         139.4684  141.8842  160.6030 C.2     1  UNL1        0.0868
     28 C         139.4454  143.3180  161.0433 C.3     1  UNL1        0.1975
     29 C         137.8705  143.7697  164.6463 C.3     1  UNL1        0.2520
     30 O         138.5424  143.1229  163.4715 O.2     1  UNL1       -0.4746
@<TRIPOS>BOND
     1    29    30    1
     2    30    20    1
     3    20    21    2
     4    21    22    1
     5    22    23    2
     6    23    24    1
     7    24    25    2
     8    25    26    1
     9    26    27    2
    10    27    18    1
    11    18    19    2
    12    18     1    1
    13     1     2    2
    14     1     3   am
    15     3     4    1
    16     4     5    1
    17     5     6    1
    18     6     7   am
    19     7     8    2
    20     7    12    1
    21    12    13   ar
    22    13    14   ar
    23    14    15   ar
    24    15    16   ar
    25    16    17   ar
    26     6     9    1
    27     9    10    1
    28    10    11    1
    29    27    28    1
    30    28    20    1
    31    28    24    1
    32    10     3    1
    33    17    12   ar
@<TRIPOS>MOLECULE
*****
 30 33 0 0 0
SMALL
GASTEIGER

@<TRIPOS>ATOM
      1 C         141.5809  139.0593  162.4584 C.2     1  UNL1        0.2881
      2 O         140.7761  138.3001  161.4455 O.2     1  UNL1       -0.2664
      3 N         141.0456  139.2579  163.8455 N.am    1  UNL1       -0.2717
      4 C         141.8504  140.0172  164.8583 C.3     1  UNL1        0.1153
      5 C         141.3152  140.2158  166.2455 C.3     1  UNL1        0.1152
      6 N         139.9752  139.6552  166.6196 N.am    1  UNL1       -0.2726
      7 C         139.4399  139.8538  168.0067 C.2     1  UNL1        0.2491
      8 O         138.0999  139.2933  168.3810 O.2     1  UNL1       -0.2699
      9 C         139.1704  138.8960  165.6068 C.3     1  UNL1        0.1135
     10 C         139.7056  138.6973  164.2197 C.3     1  UNL1        0.0956
     11 C         138.9008  137.9381  163.2068 C.3     1  UNL1        0.0233
     12 C         140.2447  140.6130  169.0196 C.ar    1  UNL1        0.0536
     13 C         141.1820  139.8815  169.9340 C.ar    1  UNL1        0.0045
     14 C         141.9868  140.6407  170.9468 C.ar    1  UNL1        0.0001
     15 C         141.8543  142.1316  171.0453 C.ar    1  UNL1        0.0000
     16 C         140.9169  142.8632  170.1310 C.ar    1  UNL1        0.0001
     17 C         140.1121  142.1039  169.1181 C.ar    1  UNL1        0.0045
     18 C         142.9210  139.6199  162.0841 C.2     1  UNL1        0.2494
     19 O         144.1678  138.8365  162.3695 O.2     1  UNL1       -0.2819
     20 C         143.7004  140.2924  158.8576 C.2     1  UNL1        0.1360
     21 C         144.0133  140.8486  157.5002 C.2     1  UNL1        0.0837
     22 C         143.9893  142.3312  157.2733 C.2     1  UNL1        0.2385
     23 N         143.6523  143.2575  158.4040 N.2     1  UNL1       -0.0338
     24 C         143.3394  142.7013  159.7614 C.2     1  UNL1        0.3626
     25 N         142.9751  143.3627  161.0575 N.2     1  UNL1       -0.0341
     26 C         142.7740  142.2889  162.0854 C.2     1  UNL1        0.2356
     27 C         143.0140  140.9639  161.4245 C.2     1  UNL1        0.0868
     28 C         143.3635  141.2188  159.9882 C.3     1  UNL1        0.1975
     29 C         142.6037  137.9545  158.5723 C.3     1  UNL1        0.2520
     30 O         143.7244  138.8099  159.0844 O.2     1  UNL1       -0.4746
@<TRIPOS>BOND
     1    29    30    1
     2    30    20    1
     3    20    21    2
     4    21    22    1
     5    22    23    2
     6    23    24    1
     7    24    25    2
     8    25    26    1
     9    26    27    2
    10    27    18    1
    11    18    19    2
    12    18     1    1
    13     1     2    2
    14     1     3   am
    15     3     4    1
    16     4     5    1
    17     5     6    1
    18     6     7   am
    19     7     8    2
    20     7    12    1
    21    12    13   ar
    22    13    14   ar
    23    14    15   ar
    24    15    16   ar
    25    16    17   ar
    26     6     9    1
    27     9    10    1
    28    10    11    1
    29    27    28    1
    30    28    20    1
    31    28    24    1
    32    10     3    1
    33    17    12   ar
@<TRIPOS>MOLECULE
*****
 30 33 0 0 0
SMALL
GASTEIGER

@<TRIPOS>ATOM
      1 C         138.9955  142.8172  162.1124 C.2     1  UNL1        0.2881
      2 O         138.0093  142.1113  161.2299 O.2     1  UNL1       -0.2664
      3 N         139.2341  142.3295  163.5107 N.am    1  UNL1       -0.2717
      4 C         140.2203  143.0354  164.3932 C.3     1  UNL1        0.1153
      5 C         140.4589  142.5477  165.7916 C.3     1  UNL1        0.1152
      6 N         139.7110  141.3541  166.3072 N.am    1  UNL1       -0.2726
      7 C         139.9495  140.8663  167.7056 C.2     1  UNL1        0.2491
      8 O         139.2017  139.6726  168.2213 O.2     1  UNL1       -0.2699
      9 C         138.7248  140.6481  165.4247 C.3     1  UNL1        0.1135
     10 C         138.4862  141.1359  164.0264 C.3     1  UNL1        0.0956
     11 C         137.5000  140.4299  163.1438 C.3     1  UNL1        0.0233
     12 C         140.9358  141.5722  168.5881 C.ar    1  UNL1        0.0536
     13 C         142.3319  141.0417  168.7271 C.ar    1  UNL1        0.0045
     14 C         143.3182  141.7476  169.6096 C.ar    1  UNL1        0.0001
     15 C         142.9084  142.9842  170.3532 C.ar    1  UNL1        0.0000
     16 C         141.5123  143.5147  170.2143 C.ar    1  UNL1        0.0001
     17 C         140.5260  142.8088  169.3317 C.ar    1  UNL1        0.0045
     18 C         139.7434  144.0109  161.5966 C.2     1  UNL1        0.2494
     19 O         139.1514  145.3825  161.7316 O.2     1  UNL1       -0.2819
     20 C         140.3919  143.3870  158.3316 C.2     1  UNL1        0.1360
     21 C         140.9382  143.1130  156.9618 C.2     1  UNL1        0.0837
     22 C         142.4198  143.0092  156.7521 C.2     1  UNL1        0.2385
     23 N         143.3552  143.1792  157.9124 N.2     1  UNL1       -0.0338
     24 C         142.8089  143.4532  159.2822 C.2     1  UNL1        0.3626
     25 N         143.4804  143.6649  160.6067 N.2     1  UNL1       -0.0341
     26 C         142.4138  143.8996  161.6349 C.2     1  UNL1        0.2356
     27 C         141.0831  143.8329  160.9459 C.2     1  UNL1        0.0868
     28 C         141.3273  143.5570  159.4918 C.3     1  UNL1        0.1975
     29 C         137.9764  142.6466  157.7257 C.3     1  UNL1        0.2520
     30 O         138.9103  143.4908  158.5412 O.2     1  UNL1       -0.4746
@<TRIPOS>BOND
     1    29    30    1
     2    30    20    1
     3    20    21    2
     4    21    22    1
     5    22    23    2
     6    23    24    1
     7    24    25    2
     8    25    26    1
     9    26    27    2
    10    27    18    1
    11    18    19    2
    12    18     1    1
    13     1     2    2
    14     1     3   am
    15     3     4    1
    16     4     5    1
    17     5     6    1
    18     6     7   am
    19     7     8    2
    20     7    12    1
    21    12    13   ar
    22    13    14   ar
    23    14    15   ar
    24    15    16   ar
    25    16    17   ar
    26     6     9    1
    27     9    10    1
    28    10    11    1
    29    27    28    1
    30    28    20    1
    31    28    24    1
    32    10     3    1
    33    17    12   ar
@<TRIPOS>MOLECULE
*****
 30 33 0 0 0
SMALL
GASTEIGER

@<TRIPOS>ATOM
      1 C         139.1701  143.4704  161.9591 C.2     1  UNL1        0.2881
      2 O         138.1771  142.8653  161.0116 O.2     1  UNL1       -0.2664
      3 N         139.3700  142.8712  163.3197 N.am    1  UNL1       -0.2717
      4 C         140.3630  143.4763  164.2672 C.3     1  UNL1        0.1153
      5 C         140.5629  142.8771  165.6277 C.3     1  UNL1        0.1152
      6 N         139.7696  141.6729  166.0407 N.am    1  UNL1       -0.2726
      7 C         139.9694  141.0736  167.4012 C.2     1  UNL1        0.2491
      8 O         139.1762  139.8694  167.8143 O.2     1  UNL1       -0.2699
      9 C         138.7766  141.0678  165.0932 C.3     1  UNL1        0.1135
     10 C         138.5767  141.6670  163.7326 C.3     1  UNL1        0.0956
     11 C         137.5837  141.0619  162.7852 C.3     1  UNL1        0.0233
     12 C         140.9625  141.6787  168.3487 C.ar    1  UNL1        0.0536
     13 C         142.3622  141.1432  168.4110 C.ar    1  UNL1        0.0045
     14 C         143.3553  141.7483  169.3585 C.ar    1  UNL1        0.0001
     15 C         142.9486  142.8889  170.2437 C.ar    1  UNL1        0.0000
     16 C         141.5488  143.4243  170.1815 C.ar    1  UNL1        0.0001
     17 C         140.5558  142.8193  169.2340 C.ar    1  UNL1        0.0045
     18 C         139.9634  144.6747  161.5461 C.2     1  UNL1        0.2494
     19 O         140.1100  145.8345  162.4858 O.2     1  UNL1       -0.2819
     20 C         142.7854  143.0902  160.5479 C.2     1  UNL1        0.1360
     21 C         143.9884  142.5071  159.8678 C.2     1  UNL1        0.0837
     22 C         144.2696  142.8337  158.4310 C.2     1  UNL1        0.2385
     23 N         143.3478  143.7436  157.6744 N.2     1  UNL1       -0.0338
     24 C         142.1448  144.3268  158.3546 C.2     1  UNL1        0.3626
     25 N         141.0650  145.2475  157.8686 N.2     1  UNL1       -0.0341
     26 C         140.1164  145.4900  159.0050 C.2     1  UNL1        0.2356
     27 C         140.6099  144.7190  160.1933 C.2     1  UNL1        0.0868
     28 C         141.8636  144.0001  159.7913 C.3     1  UNL1        0.1975
     29 C         143.1237  141.5507  162.6132 C.3     1  UNL1        0.2520
     30 O         142.5041  142.7636  161.9846 O.2     1  UNL1       -0.4746
@<TRIPOS>BOND
     1    29    30    1
     2    30    20    1
     3    20    21    2
     4    21    22    1
     5    22    23    2
     6    23    24    1
     7    24    25    2
     8    25    26    1
     9    26    27    2
    10    27    18    1
    11    18    19    2
    12    18     1    1
    13     1     2    2
    14     1     3   am
    15     3     4    1
    16     4     5    1
    17     5     6    1
    18     6     7   am
    19     7     8    2
    20     7    12    1
    21    12    13   ar
    22    13    14   ar
    23    14    15   ar
    24    15    16   ar
    25    16    17   ar
    26     6     9    1
    27     9    10    1
    28    10    11    1
    29    27    28    1
    30    28    20    1
    31    28    24    1
    32    10     3    1
    33    17    12   ar
@<TRIPOS>MOLECULE
*****
 30 33 0 0 0
SMALL
GASTEIGER

@<TRIPOS>ATOM
      1 C         139.4600  140.2699  162.5673 C.2     1  UNL1        0.2881
      2 O         139.7005  139.3816  161.3828 O.2     1  UNL1       -0.2664
      3 N         140.2342  140.0566  163.8342 N.am    1  UNL1       -0.2717
      4 C         139.9938  140.9449  165.0187 C.3     1  UNL1        0.1153
      5 C         140.7680  140.7316  166.2856 C.3     1  UNL1        0.1152
      6 N         141.7826  139.6300  166.3680 N.am    1  UNL1       -0.2726
      7 C         142.5569  139.4166  167.6349 C.2     1  UNL1        0.2491
      8 O         143.5716  138.3150  167.7173 O.2     1  UNL1       -0.2699
      9 C         142.0231  138.7416  165.1835 C.3     1  UNL1        0.1135
     10 C         141.2489  138.9550  163.9166 C.3     1  UNL1        0.0956
     11 C         141.4893  138.0666  162.7321 C.3     1  UNL1        0.0233
     12 C         142.3164  140.3049  168.8194 C.ar    1  UNL1        0.0536
     13 C         143.0428  141.6120  168.9364 C.ar    1  UNL1        0.0045
     14 C         142.8023  142.5004  170.1209 C.ar    1  UNL1        0.0001
     15 C         141.8354  142.0816  171.1885 C.ar    1  UNL1        0.0000
     16 C         141.1090  140.7744  171.0715 C.ar    1  UNL1        0.0001
     17 C         141.3495  139.8861  169.8870 C.ar    1  UNL1        0.0045
     18 C         138.4453  141.3716  162.4848 C.2     1  UNL1        0.2494
     19 O         136.9823  141.0515  162.5687 O.2     1  UNL1       -0.2819
     20 C         139.4258  142.9125  159.6328 C.2     1  UNL1        0.1360
     21 C         139.8945  143.8114  158.5273 C.2     1  UNL1        0.0837
     22 C         140.2584  145.2364  158.8226 C.2     1  UNL1        0.2385
     23 N         140.1536  145.7623  160.2234 N.2     1  UNL1       -0.0338
     24 C         139.6849  144.8634  161.3289 C.2     1  UNL1        0.3626
     25 N         139.4824  145.0989  162.7964 N.2     1  UNL1       -0.0341
     26 C         138.9934  143.8195  163.4081 C.2     1  UNL1        0.2356
     27 C         138.8936  142.7933  162.3186 C.2     1  UNL1        0.0868
     28 C         139.3210  143.4385  161.0336 C.3     1  UNL1        0.1975
     29 C         137.9800  141.1800  158.3452 C.3     1  UNL1        0.2520
     30 O         139.0620  141.4876  159.3375 O.2     1  UNL1       -0.4746
@<TRIPOS>BOND
     1    29    30    1
     2    30    20    1
     3    20    21    2
     4    21    22    1
     5    22    23    2
     6    23    24    1
     7    24    25    2
     8    25    26    1
     9    26    27    2
    10    27    18    1
    11    18    19    2
    12    18     1    1
    13     1     2    2
    14     1     3   am
    15     3     4    1
    16     4     5    1
    17     5     6    1
    18     6     7   am
    19     7     8    2
    20     7    12    1
    21    12    13   ar
    22    13    14   ar
    23    14    15   ar
    24    15    16   ar
    25    16    17   ar
    26     6     9    1
    27     9    10    1
    28    10    11    1
    29    27    28    1
    30    28    20    1
    31    28    24    1
    32    10     3    1
    33    17    12   ar
@<TRIPOS>MOLECULE
*****
 30 33 0 0 0
SMALL
GASTEIGER

@<TRIPOS>ATOM
      1 C         142.9670  141.8994  161.8589 C.2     1  UNL1        0.2881
      2 O         143.7441  141.0371  160.9090 O.2     1  UNL1       -0.2664
      3 N         142.8268  141.4942  163.2964 N.am    1  UNL1       -0.2717
      4 C         142.0496  142.3565  164.2463 C.3     1  UNL1        0.1153
      5 C         141.9095  141.9513  165.6838 C.3     1  UNL1        0.1152
      6 N         142.5466  140.6839  166.1711 N.am    1  UNL1       -0.2726
      7 C         142.4066  140.2786  167.6086 C.2     1  UNL1        0.2491
      8 O         143.0436  139.0111  168.0961 O.2     1  UNL1       -0.2699
      9 C         143.3238  139.8216  165.2212 C.3     1  UNL1        0.1135
     10 C         143.4639  140.2267  163.7838 C.3     1  UNL1        0.0956
     11 C         144.2411  139.3644  162.8338 C.3     1  UNL1        0.0233
     12 C         141.6294  141.1409  168.5585 C.ar    1  UNL1        0.0536
     13 C         142.2077  142.4394  169.0373 C.ar    1  UNL1        0.0045
     14 C         141.4305  143.3017  169.9873 C.ar    1  UNL1        0.0001
     15 C         140.0749  142.8655  170.4585 C.ar    1  UNL1        0.0000
     16 C         139.4966  141.5669  169.9797 C.ar    1  UNL1        0.0001
     17 C         140.2738  140.7046  169.0298 C.ar    1  UNL1        0.0045
     18 C         142.3298  143.1669  161.3714 C.2     1  UNL1        0.2494
     19 O         143.0052  144.4850  161.6086 O.2     1  UNL1       -0.2819
     20 C         141.7790  143.5819  158.0556 C.2     1  UNL1        0.1360
     21 C         141.2754  143.7258  156.6501 C.2     1  UNL1        0.0837
     22 C         139.8094  143.5937  156.3613 C.2     1  UNL1        0.2385
     23 N         138.8470  143.3176  157.4782 N.2     1  UNL1       -0.0338
     24 C         139.3505  143.1737  158.8837 C.2     1  UNL1        0.3626
     25 N         138.6455  142.9023  160.1796 N.2     1  UNL1       -0.0341
     26 C         139.6757  142.8667  161.2693 C.2     1  UNL1        0.2356
     27 C         141.0175  143.1161  160.6468 C.2     1  UNL1        0.0868
     28 C         140.8165  143.3059  159.1725 C.3     1  UNL1        0.1975
     29 C         144.2015  142.6628  157.8652 C.3     1  UNL1        0.2520
     30 O         143.2450  143.7141  158.3444 O.2     1  UNL1       -0.4746
@<TRIPOS>BOND
     1    29    30    1
     2    30    20    1
     3    20    21    2
     4    21    22    1
     5    22    23    2
     6    23    24    1
     7    24    25    2
     8    25    26    1
     9    26    27    2
    10    27    18    1
    11    18    19    2
    12    18     1    1
    13     1     2    2
    14     1     3   am
    15     3     4    1
    16     4     5    1
    17     5     6    1
    18     6     7   am
    19     7     8    2
    20     7    12    1
    21    12    13   ar
    22    13    14   ar
    23    14    15   ar
    24    15    16   ar
    25    16    17   ar
    26     6     9    1
    27     9    10    1
    28    10    11    1
    29    27    28    1
    30    28    20    1
    31    28    24    1
    32    10     3    1
    33    17    12   ar
@<TRIPOS>MOLECULE
*****
 30 33 0 0 0
SMALL
GASTEIGER

@<TRIPOS>ATOM
      1 C         140.5895  140.8253  161.4359 C.2     1  UNL1        0.2881
      2 O         141.3206  140.0445  160.3844 O.2     1  UNL1       -0.2664
      3 N         140.9444  140.6501  162.8827 N.am    1  UNL1       -0.2717
      4 C         140.2133  141.4310  163.9342 C.3     1  UNL1        0.1153
      5 C         140.5682  141.2558  165.3811 C.3     1  UNL1        0.1152
      6 N         141.6543  140.2998  165.7763 N.am    1  UNL1       -0.2726
      7 C         142.0093  140.1245  167.2232 C.2     1  UNL1        0.2491
      8 O         143.0955  139.1685  167.6185 O.2     1  UNL1       -0.2699
      9 C         142.3855  139.5189  164.7248 C.3     1  UNL1        0.1135
     10 C         142.0305  139.6941  163.2780 C.3     1  UNL1        0.0956
     11 C         142.7617  138.9132  162.2265 C.3     1  UNL1        0.0233
     12 C         141.2782  140.9054  168.2746 C.ar    1  UNL1        0.0536
     13 C         140.0755  140.3136  168.9478 C.ar    1  UNL1        0.0045
     14 C         139.3443  141.0944  169.9993 C.ar    1  UNL1        0.0001
     15 C         139.8158  142.4672  170.3777 C.ar    1  UNL1        0.0000
     16 C         141.0186  143.0590  169.7045 C.ar    1  UNL1        0.0001
     17 C         141.7497  142.2782  168.6530 C.ar    1  UNL1        0.0045
     18 C         139.5033  141.7814  161.0405 C.2     1  UNL1        0.2494
     19 O         138.0692  141.3434  161.0759 O.2     1  UNL1       -0.2819
     20 C         139.4589  143.0494  157.9004 C.2     1  UNL1        0.1360
     21 C         139.5211  143.8399  156.6272 C.2     1  UNL1        0.0837
     22 C         139.9429  145.2791  156.6577 C.2     1  UNL1        0.2385
     23 N         140.3024  145.9277  157.9615 N.2     1  UNL1       -0.0338
     24 C         140.2402  145.1372  159.2348 C.2     1  UNL1        0.3626
     25 N         140.5338  145.5040  160.6593 N.2     1  UNL1       -0.0341
     26 C         140.2935  144.2916  161.5091 C.2     1  UNL1        0.2356
     27 C         139.8514  143.1755  160.6098 C.2     1  UNL1        0.0868
     28 C         139.8184  143.6981  159.2042 C.3     1  UNL1        0.1975
     29 C         137.6270  141.2495  157.5074 C.3     1  UNL1        0.2520
     30 O         139.0371  141.6103  157.8698 O.2     1  UNL1       -0.4746
@<TRIPOS>BOND
     1    29    30    1
     2    30    20    1
     3    20    21    2
     4    21    22    1
     5    22    23    2
     6    23    24    1
     7    24    25    2
     8    25    26    1
     9    26    27    2
    10    27    18    1
    11    18    19    2
    12    18     1    1
    13     1     2    2
    14     1     3   am
    15     3     4    1
    16     4     5    1
    17     5     6    1
    18     6     7   am
    19     7     8    2
    20     7    12    1
    21    12    13   ar
    22    13    14   ar
    23    14    15   ar
    24    15    16   ar
    25    16    17   ar
    26     6     9    1
    27     9    10    1
    28    10    11    1
    29    27    28    1
    30    28    20    1
    31    28    24    1
    32    10     3    1
    33    17    12   ar
@<TRIPOS>MOLECULE
*****
 30 33 0 0 0
SMALL
GASTEIGER

@<TRIPOS>ATOM
      1 C         140.2669  141.1790  161.5984 C.2     1  UNL1        0.2881
      2 O         139.3478  140.3883  160.7152 O.2     1  UNL1       -0.2664
      3 N         140.1970  141.0190  163.0882 N.am    1  UNL1       -0.2717
      4 C         141.1161  141.8097  163.9713 C.3     1  UNL1        0.1153
      5 C         141.0461  141.6498  165.4612 C.3     1  UNL1        0.1152
      6 N         140.0571  140.6991  166.0677 N.am    1  UNL1       -0.2726
      7 C         139.9871  140.5391  167.5575 C.2     1  UNL1        0.2491
      8 O         138.9981  139.5884  168.1642 O.2     1  UNL1       -0.2699
      9 C         139.1380  139.9084  165.1845 C.3     1  UNL1        0.1135
     10 C         139.2079  140.0683  163.6947 C.3     1  UNL1        0.0956
     11 C         138.2888  139.2776  162.8115 C.3     1  UNL1        0.0233
     12 C         140.9062  141.3298  168.4407 C.ar    1  UNL1        0.0536
     13 C         140.4381  142.6193  169.0473 C.ar    1  UNL1        0.0045
     14 C         141.3572  143.4100  169.9304 C.ar    1  UNL1        0.0001
     15 C         142.7445  142.9112  170.2071 C.ar    1  UNL1        0.0000
     16 C         143.2126  141.6217  169.6005 C.ar    1  UNL1        0.0001
     17 C         142.2935  140.8310  168.7174 C.ar    1  UNL1        0.0045
     18 C         141.2560  142.1297  160.9917 C.2     1  UNL1        0.2494
     19 O         142.6952  141.7296  160.8570 O.2     1  UNL1       -0.2819
     20 C         141.1444  143.2787  157.8077 C.2     1  UNL1        0.1360
     21 C         141.0006  144.0148  156.5087 C.2     1  UNL1        0.0837
     22 C         140.4841  145.4230  156.4979 C.2     1  UNL1        0.2385
     23 N         140.1114  146.0951  157.7860 N.2     1  UNL1       -0.0338
     24 C         140.2552  145.3590  159.0850 C.2     1  UNL1        0.3626
     25 N         139.9700  145.7590  160.5023 N.2     1  UNL1       -0.0341
     26 C         140.3101  144.5980  161.3890 C.2     1  UNL1        0.2356
     27 C         140.8056  143.4805  160.5198 C.2     1  UNL1        0.0868
     28 C         140.7717  143.9508  159.0959 C.3     1  UNL1        0.1975
     29 C         140.9617  140.8090  157.0220 C.3     1  UNL1        0.2520
     30 O         141.6608  141.8704  157.8186 O.2     1  UNL1       -0.4746
@<TRIPOS>BOND
     1    29    30    1
     2    30    20    1
     3    20    21    2
     4    21    22    1
     5    22    23    2
     6    23    24    1
     7    24    25    2
     8    25    26    1
     9    26    27    2
    10    27    18    1
    11    18    19    2
    12    18     1    1
    13     1     2    2
    14     1     3   am
    15     3     4    1
    16     4     5    1
    17     5     6    1
    18     6     7   am
    19     7     8    2
    20     7    12    1
    21    12    13   ar
    22    13    14   ar
    23    14    15   ar
    24    15    16   ar
    25    16    17   ar
    26     6     9    1
    27     9    10    1
    28    10    11    1
    29    27    28    1
    30    28    20    1
    31    28    24    1
    32    10     3    1
    33    17    12   ar
