@<TRIPOS>MOLECULE
*****
 41 46 0 0 0
SMALL
GASTEIGER

@<TRIPOS>ATOM
      1 N         143.0361  140.0490  160.5928 N.3     1  UNL1       -0.2689
      2 C         142.5972  141.2694  161.3463 C.3     1  UNL1        0.0724
      3 C         142.5174  141.2378  162.8438 C.3     1  UNL1        0.0175
      4 C         142.8765  139.9858  163.5878 C.3     1  UNL1        0.0060
      5 C         143.3154  138.7654  162.8343 C.3     1  UNL1        0.0175
      6 C         143.3952  138.7970  161.3368 C.3     1  UNL1        0.0724
      7 C         142.4376  141.2063  164.3414 C.3     1  UNL1        0.0217
      8 C         142.3578  141.1748  165.8389 C.3     1  UNL1        0.0937
      9 N         142.7169  139.9227  166.5829 N.am    1  UNL1       -0.2761
     10 C         142.6371  139.8912  168.0805 C.2     1  UNL1        0.2491
     11 O         142.9962  138.6392  168.8245 O.2     1  UNL1       -0.2699
     12 C         143.1558  138.7023  165.8294 C.3     1  UNL1        0.0937
     13 C         143.2356  138.7338  164.3318 C.3     1  UNL1        0.0217
     14 C         142.1982  141.1117  168.8340 C.ar    1  UNL1        0.0566
     15 C         143.2200  142.0182  169.4539 C.ar    1  UNL1        0.0046
     16 C         142.7811  143.2386  170.2074 C.ar    1  UNL1        0.0001
     17 C         141.3204  143.5526  170.3411 C.ar    1  UNL1        0.0001
     18 C         140.2986  142.6461  169.7213 C.ar    1  UNL1        0.0032
     19 C         140.7376  141.4256  168.9678 C.ar    1  UNL1        0.0415
     20 C         139.7158  140.5190  168.3479 C.ar    1  UNL1        0.1807
     21 N         138.7964  139.5917  169.0860 N.ar    1  UNL1       -0.1083
     22 N         137.9464  138.8802  168.0755 N.ar    1  UNL1       -0.0229
     23 N         138.3405  139.3677  166.7128 N.ar    1  UNL1       -0.0464
     24 N         139.4340  140.3806  166.8811 N.ar    1  UNL1       -0.2388
     25 H         139.8873  140.8688  166.1562 H       1  UNL1        0.1923
     26 C         143.1159  140.0805  159.0952 C.3     1  UNL1        0.1022
     27 C         140.7849  139.1561  158.4155 C.ar    1  UNL1        0.1427
     28 C         139.9477  138.2160  157.5998 C.ar    1  UNL1        0.0372
     29 C         140.6042  137.2603  156.6482 C.ar    1  UNL1        0.0031
     30 C         142.0980  137.2446  156.5123 C.ar    1  UNL1       -0.0001
     31 C         142.9352  138.1847  157.3279 C.ar    1  UNL1        0.0001
     32 C         142.2787  139.1404  158.2796 C.ar    1  UNL1        0.0284
     33 O         140.1284  140.1118  159.3671 O.3     1  UNL1       -0.4507
     34 C         138.6287  140.4604  161.4598 C.ar    1  UNL1        0.1730
     35 C         138.0881  139.9637  162.7679 C.ar    1  UNL1        0.0401
     36 C         138.5066  138.6218  163.2914 C.ar    1  UNL1        0.0033
     37 C         139.4658  137.7765  162.5067 C.ar    1  UNL1        0.0033
     38 C         140.0064  138.2731  161.1987 C.ar    1  UNL1        0.0406
     39 C         139.5878  139.6151  160.6752 C.ar    1  UNL1        0.1789
     40 C         138.1527  142.9830  161.8598 C.3     1  UNL1        0.2526
     41 O         138.2102  141.8024  160.9363 O.3     1  UNL1       -0.4684
@<TRIPOS>BOND
     1    40    41    1
     2    41    34    1
     3    34    35   ar
     4    35    36   ar
     5    36    37   ar
     6    37    38   ar
     7    38    39   ar
     8    39    33    1
     9    33    27    1
    10    27    28   ar
    11    28    29   ar
    12    29    30   ar
    13    30    31   ar
    14    31    32   ar
    15    32    26    1
    16    26     1    1
    17     1     2    1
    18     2     3    1
    19     3     4    1
    20     4     5    1
    21     5     6    1
    22     4     7    1
    23     7     8    1
    24     8     9    1
    25     9    10   am
    26    10    11    2
    27    10    14    1
    28    14    15   ar
    29    15    16   ar
    30    16    17   ar
    31    17    18   ar
    32    18    19   ar
    33    19    20    1
    34    20    21   ar
    35    21    22   ar
    36    22    23   ar
    37    23    24   ar
    38     9    12    1
    39    12    13    1
    40    39    34   ar
    41    32    27   ar
    42     6     1    1
    43    19    14   ar
    44    24    20   ar
    45    13     4    1
    46    24    25    1
@<TRIPOS>MOLECULE
*****
 41 46 0 0 0
SMALL
GASTEIGER

@<TRIPOS>ATOM
      1 N         138.7039  142.3566  160.5607 N.3     1  UNL1       -0.2689
      2 C         139.6237  143.2037  161.3892 C.3     1  UNL1        0.0724
      3 C         139.8462  142.8753  162.8357 C.3     1  UNL1        0.0175
      4 C         139.1490  141.6998  163.4538 C.3     1  UNL1        0.0060
      5 C         138.2292  140.8527  162.6254 C.3     1  UNL1        0.0175
      6 C         138.0067  141.1811  161.1788 C.3     1  UNL1        0.0724
      7 C         140.0688  142.5470  164.2824 C.3     1  UNL1        0.0217
      8 C         140.2914  142.2186  165.7289 C.3     1  UNL1        0.0937
      9 N         139.5941  141.0431  166.3470 N.am    1  UNL1       -0.2761
     10 C         139.8167  140.7147  167.7937 C.2     1  UNL1        0.2491
     11 O         139.1195  139.5392  168.4118 O.2     1  UNL1       -0.2699
     12 C         138.6744  140.1960  165.5186 C.3     1  UNL1        0.0937
     13 C         138.4518  140.5243  164.0720 C.3     1  UNL1        0.0217
     14 C         140.7365  141.5618  168.6221 C.ar    1  UNL1        0.0566
     15 C         140.1821  142.6859  169.4463 C.ar    1  UNL1        0.0046
     16 C         141.1019  143.5330  170.2747 C.ar    1  UNL1        0.0001
     17 C         142.5761  143.2561  170.2790 C.ar    1  UNL1        0.0001
     18 C         143.1306  142.1321  169.4549 C.ar    1  UNL1        0.0032
     19 C         142.2107  141.2849  168.6264 C.ar    1  UNL1        0.0415
     20 C         142.7651  140.1609  167.8023 C.ar    1  UNL1        0.1807
     21 N         143.0379  140.2000  166.3278 N.ar    1  UNL1       -0.1083
     22 N         143.5855  138.8637  165.9221 N.ar    1  UNL1       -0.0229
     23 N         143.6510  137.9988  167.1459 N.ar    1  UNL1       -0.0464
     24 N         143.1440  138.8004  168.3079 N.ar    1  UNL1       -0.2388
     25 H         143.0725  138.4885  169.2390 H       1  UNL1        0.1923
     26 C         138.4813  142.6849  159.1141 C.3     1  UNL1        0.1022
     27 C         139.9045  140.8424  157.9610 C.ar    1  UNL1        0.1427
     28 C         140.0471  139.7732  156.9186 C.ar    1  UNL1        0.0372
     29 C         138.9093  139.4774  155.9870 C.ar    1  UNL1        0.0031
     30 C         137.6288  140.2507  156.0978 C.ar    1  UNL1       -0.0001
     31 C         137.4861  141.3199  157.1401 C.ar    1  UNL1        0.0001
     32 C         138.6240  141.6158  158.0718 C.ar    1  UNL1        0.0284
     33 O         141.0423  141.1382  158.8926 O.3     1  UNL1       -0.4507
     34 C         142.2021  140.7372  161.1825 C.ar    1  UNL1        0.1730
     35 C         142.4166  139.8857  162.3986 C.ar    1  UNL1        0.0401
     36 C         141.6856  138.5836  162.5409 C.ar    1  UNL1        0.0033
     37 C         140.7401  138.1330  161.4670 C.ar    1  UNL1        0.0033
     38 C         140.5257  138.9845  160.2509 C.ar    1  UNL1        0.0406
     39 C         141.2567  140.2867  160.1087 C.ar    1  UNL1        0.1789
     40 C         143.7167  142.5895  162.1949 C.3     1  UNL1        0.2526
     41 O         142.9331  142.0393  161.0403 O.3     1  UNL1       -0.4684
@<TRIPOS>BOND
     1    40    41    1
     2    41    34    1
     3    34    35   ar
     4    35    36   ar
     5    36    37   ar
     6    37    38   ar
     7    38    39   ar
     8    39    33    1
     9    33    27    1
    10    27    28   ar
    11    28    29   ar
    12    29    30   ar
    13    30    31   ar
    14    31    32   ar
    15    32    26    1
    16    26     1    1
    17     1     2    1
    18     2     3    1
    19     3     4    1
    20     4     5    1
    21     5     6    1
    22     4     7    1
    23     7     8    1
    24     8     9    1
    25     9    10   am
    26    10    11    2
    27    10    14    1
    28    14    15   ar
    29    15    16   ar
    30    16    17   ar
    31    17    18   ar
    32    18    19   ar
    33    19    20    1
    34    20    21   ar
    35    21    22   ar
    36    22    23   ar
    37    23    24   ar
    38     9    12    1
    39    12    13    1
    40    39    34   ar
    41    32    27   ar
    42     6     1    1
    43    19    14   ar
    44    24    20   ar
    45    13     4    1
    46    24    25    1
@<TRIPOS>MOLECULE
*****
 41 46 0 0 0
SMALL
GASTEIGER

@<TRIPOS>ATOM
      1 N         142.5632  139.7637  165.9124 N.3     1  UNL1       -0.2689
      2 C         142.3695  138.5025  165.1239 C.3     1  UNL1        0.0724
      3 C         142.2715  138.5606  163.6283 C.3     1  UNL1        0.0175
      4 C         142.3673  139.8800  162.9211 C.3     1  UNL1        0.0060
      5 C         142.5610  141.1412  163.7096 C.3     1  UNL1        0.0175
      6 C         142.6590  141.0831  165.2052 C.3     1  UNL1        0.0724
      7 C         142.1736  138.6187  162.1326 C.3     1  UNL1        0.0217
      8 C         142.0756  138.6768  160.6370 C.3     1  UNL1        0.0937
      9 N         142.1714  139.9962  159.9298 N.am    1  UNL1       -0.2761
     10 C         142.0734  140.0543  158.4340 C.2     1  UNL1        0.2491
     11 O         142.1692  141.3736  157.7269 O.2     1  UNL1       -0.2699
     12 C         142.3651  141.2574  160.7182 C.3     1  UNL1        0.0937
     13 C         142.4631  141.1993  162.2140 C.3     1  UNL1        0.0217
     14 C         141.8797  138.7930  157.6456 C.ar    1  UNL1        0.0566
     15 C         143.0704  138.0006  157.1938 C.ar    1  UNL1        0.0046
     16 C         142.8767  136.7394  156.4053 C.ar    1  UNL1        0.0001
     17 C         141.4922  136.2705  156.0686 C.ar    1  UNL1        0.0001
     18 C         140.3014  137.0629  156.5205 C.ar    1  UNL1        0.0032
     19 C         140.4952  138.3242  157.3090 C.ar    1  UNL1        0.0415
     20 C         139.3044  139.1167  157.7608 C.ar    1  UNL1        0.1807
     21 N         138.4222  139.9582  156.8870 N.ar    1  UNL1       -0.1083
     22 N         137.3594  140.5683  157.7519 N.ar    1  UNL1       -0.0229
     23 N         137.5847  140.1039  159.1603 N.ar    1  UNL1       -0.0464
     24 N         138.7868  139.2067  159.1658 N.ar    1  UNL1       -0.2388
     25 H         139.1689  138.7560  159.9533 H       1  UNL1        0.1923
     26 C         142.6612  139.7056  167.4081 C.3     1  UNL1        0.1022
     27 C         140.7947  141.3046  168.2504 C.ar    1  UNL1        0.1427
     28 C         140.3676  142.4818  169.0763 C.ar    1  UNL1        0.0372
     29 C         141.3799  143.2368  169.8857 C.ar    1  UNL1        0.0031
     30 C         142.8192  142.8149  169.8693 C.ar    1  UNL1       -0.0001
     31 C         143.2463  141.6378  169.0434 C.ar    1  UNL1        0.0001
     32 C         142.2341  140.8827  168.2340 C.ar    1  UNL1        0.0284
     33 O         139.7825  140.5495  167.4410 O.3     1  UNL1       -0.4507
     34 C         138.9542  140.0346  165.0330 C.ar    1  UNL1        0.1730
     35 C         138.5943  140.5046  163.6547 C.ar    1  UNL1        0.0401
     36 C         138.7028  141.9594  163.3062 C.ar    1  UNL1        0.0033
     37 C         139.1713  142.9444  164.3360 C.ar    1  UNL1        0.0033
     38 C         139.5312  142.4745  165.7143 C.ar    1  UNL1        0.0406
     39 C         139.4226  141.0195  166.0627 C.ar    1  UNL1        0.1789
     40 C         138.8293  137.5471  164.2936 C.3     1  UNL1        0.2526
     41 O         138.8456  138.5796  165.3815 O.3     1  UNL1       -0.4684
@<TRIPOS>BOND
     1    40    41    1
     2    41    34    1
     3    34    35   ar
     4    35    36   ar
     5    36    37   ar
     6    37    38   ar
     7    38    39   ar
     8    39    33    1
     9    33    27    1
    10    27    28   ar
    11    28    29   ar
    12    29    30   ar
    13    30    31   ar
    14    31    32   ar
    15    32    26    1
    16    26     1    1
    17     1     2    1
    18     2     3    1
    19     3     4    1
    20     4     5    1
    21     5     6    1
    22     4     7    1
    23     7     8    1
    24     8     9    1
    25     9    10   am
    26    10    11    2
    27    10    14    1
    28    14    15   ar
    29    15    16   ar
    30    16    17   ar
    31    17    18   ar
    32    18    19   ar
    33    19    20    1
    34    20    21   ar
    35    21    22   ar
    36    22    23   ar
    37    23    24   ar
    38     9    12    1
    39    12    13    1
    40    39    34   ar
    41    32    27   ar
    42     6     1    1
    43    19    14   ar
    44    24    20   ar
    45    13     4    1
    46    24    25    1
@<TRIPOS>MOLECULE
*****
 41 46 0 0 0
SMALL
GASTEIGER

@<TRIPOS>ATOM
      1 N         143.9975  142.0623  160.3820 N.3     1  UNL1       -0.2689
      2 C         143.4517  143.0933  161.3248 C.3     1  UNL1        0.0724
      3 C         143.1933  142.7364  162.7586 C.3     1  UNL1        0.0175
      4 C         143.4806  141.3485  163.2495 C.3     1  UNL1        0.0060
      5 C         144.0264  140.3174  162.3067 C.3     1  UNL1        0.0175
      6 C         144.2849  140.6743  160.8729 C.3     1  UNL1        0.0724
      7 C         142.9348  142.3795  164.1925 C.3     1  UNL1        0.0217
      8 C         142.6764  142.0226  165.6263 C.3     1  UNL1        0.0937
      9 N         142.9637  140.6347  166.1172 N.am    1  UNL1       -0.2761
     10 C         142.7053  140.2778  167.5511 C.2     1  UNL1        0.2491
     11 O         142.9926  138.8898  168.0420 O.2     1  UNL1       -0.2699
     12 C         143.5095  139.6036  165.1744 C.3     1  UNL1        0.0937
     13 C         143.7680  139.9605  163.7405 C.3     1  UNL1        0.0217
     14 C         142.1594  141.3088  168.4939 C.ar    1  UNL1        0.0566
     15 C         143.0962  142.1932  169.2623 C.ar    1  UNL1        0.0046
     16 C         142.5504  143.2242  170.2051 C.ar    1  UNL1        0.0001
     17 C         141.0678  143.3709  170.3797 C.ar    1  UNL1        0.0001
     18 C         140.1310  142.4865  169.6113 C.ar    1  UNL1        0.0032
     19 C         140.6769  141.4555  168.6684 C.ar    1  UNL1        0.0415
     20 C         139.7402  140.5711  167.9000 C.ar    1  UNL1        0.1807
     21 N         138.9128  139.4571  168.4696 N.ar    1  UNL1       -0.1083
     22 N         138.1276  138.8429  167.3488 N.ar    1  UNL1       -0.0229
     23 N         138.4697  139.5774  166.0864 N.ar    1  UNL1       -0.0464
     24 N         139.4663  140.6454  166.4270 N.ar    1  UNL1       -0.2388
     25 H         139.8699  141.2832  165.7949 H       1  UNL1        0.1923
     26 C         144.2560  142.4192  158.9481 C.3     1  UNL1        0.1022
     27 C         142.2717  141.5699  157.5020 C.ar    1  UNL1        0.1427
     28 C         141.7461  140.6930  156.4043 C.ar    1  UNL1        0.0372
     29 C         142.6792  139.7885  155.6552 C.ar    1  UNL1        0.0031
     30 C         144.1379  139.7609  156.0037 C.ar    1  UNL1       -0.0001
     31 C         144.6635  140.6377  157.1014 C.ar    1  UNL1        0.0001
     32 C         143.7304  141.5423  157.8505 C.ar    1  UNL1        0.0284
     33 O         141.3386  142.4744  158.2511 O.3     1  UNL1       -0.4507
     34 C         139.7990  142.9201  160.2958 C.ar    1  UNL1        0.1730
     35 C         139.1266  142.4350  161.5459 C.ar    1  UNL1        0.0401
     36 C         139.3216  141.0192  162.0013 C.ar    1  UNL1        0.0033
     37 C         140.1889  140.0884  161.2066 C.ar    1  UNL1        0.0033
     38 C         140.8612  140.5735  159.9565 C.ar    1  UNL1        0.0406
     39 C         140.6662  141.9894  159.5011 C.ar    1  UNL1        0.1789
     40 C         140.6462  145.3714  160.1430 C.3     1  UNL1        0.2526
     41 O         139.6040  144.3360  159.8404 O.3     1  UNL1       -0.4684
@<TRIPOS>BOND
     1    40    41    1
     2    41    34    1
     3    34    35   ar
     4    35    36   ar
     5    36    37   ar
     6    37    38   ar
     7    38    39   ar
     8    39    33    1
     9    33    27    1
    10    27    28   ar
    11    28    29   ar
    12    29    30   ar
    13    30    31   ar
    14    31    32   ar
    15    32    26    1
    16    26     1    1
    17     1     2    1
    18     2     3    1
    19     3     4    1
    20     4     5    1
    21     5     6    1
    22     4     7    1
    23     7     8    1
    24     8     9    1
    25     9    10   am
    26    10    11    2
    27    10    14    1
    28    14    15   ar
    29    15    16   ar
    30    16    17   ar
    31    17    18   ar
    32    18    19   ar
    33    19    20    1
    34    20    21   ar
    35    21    22   ar
    36    22    23   ar
    37    23    24   ar
    38     9    12    1
    39    12    13    1
    40    39    34   ar
    41    32    27   ar
    42     6     1    1
    43    19    14   ar
    44    24    20   ar
    45    13     4    1
    46    24    25    1
@<TRIPOS>MOLECULE
*****
 41 46 0 0 0
SMALL
GASTEIGER

@<TRIPOS>ATOM
      1 N         141.8133  144.4773  160.0401 N.3     1  UNL1       -0.2689
      2 C         141.3347  145.1227  161.3067 C.3     1  UNL1        0.0724
      3 C         141.4687  144.3994  162.6140 C.3     1  UNL1        0.0175
      4 C         142.0813  143.0308  162.6546 C.3     1  UNL1        0.0060
      5 C         142.5599  142.3854  161.3880 C.3     1  UNL1        0.0175
      6 C         142.4259  143.1087  160.0807 C.3     1  UNL1        0.0724
      7 C         141.6027  143.6762  163.9213 C.3     1  UNL1        0.0217
      8 C         141.7368  142.9530  165.2286 C.3     1  UNL1        0.0937
      9 N         142.3494  141.5844  165.2692 N.am    1  UNL1       -0.2761
     10 C         142.4834  140.8612  166.5765 C.2     1  UNL1        0.2491
     11 O         143.0960  139.4925  166.6172 O.2     1  UNL1       -0.2699
     12 C         142.8279  140.9390  164.0026 C.3     1  UNL1        0.0937
     13 C         142.6939  141.6622  162.6952 C.3     1  UNL1        0.0217
     14 C         142.0048  141.5065  167.8432 C.ar    1  UNL1        0.0566
     15 C         142.9575  142.3008  168.6866 C.ar    1  UNL1        0.0046
     16 C         142.4789  142.9462  169.9532 C.ar    1  UNL1        0.0001
     17 C         141.0476  142.7973  170.3765 C.ar    1  UNL1        0.0001
     18 C         140.0948  142.0030  169.5330 C.ar    1  UNL1        0.0032
     19 C         140.5735  141.3576  168.2663 C.ar    1  UNL1        0.0415
     20 C         139.6207  140.5633  167.4229 C.ar    1  UNL1        0.1807
     21 N         139.1802  140.9054  166.0305 N.ar    1  UNL1       -0.1083
     22 N         138.2284  139.8410  165.5708 N.ar    1  UNL1       -0.0229
     23 N         138.0808  138.8411  166.6791 N.ar    1  UNL1       -0.0464
     24 N         138.9413  139.2875  167.8238 N.ar    1  UNL1       -0.2388
     25 H         139.0424  138.8244  168.6868 H       1  UNL1        0.1923
     26 C         141.6793  145.2005  158.7328 C.3     1  UNL1        0.1022
     27 C         139.8005  143.7853  157.6295 C.ar    1  UNL1        0.1427
     28 C         139.2431  143.0737  156.4323 C.ar    1  UNL1        0.0372
     29 C         140.0072  143.0658  155.1415 C.ar    1  UNL1        0.0031
     30 C         141.3285  143.7695  155.0478 C.ar    1  UNL1       -0.0001
     31 C         141.8859  144.4810  156.2448 C.ar    1  UNL1        0.0001
     32 C         141.1219  144.4889  157.5357 C.ar    1  UNL1        0.0284
     33 O         139.0365  143.7932  158.9203 O.3     1  UNL1       -0.4507
     34 C         138.5665  142.6894  161.2248 C.ar    1  UNL1        0.1730
     35 C         138.5858  141.4824  162.1151 C.ar    1  UNL1        0.0401
     36 C         139.0945  140.1722  161.5914 C.ar    1  UNL1        0.0033
     37 C         139.5839  140.0688  160.1772 C.ar    1  UNL1        0.0033
     38 C         139.5645  141.2758  159.2868 C.ar    1  UNL1        0.0406
     39 C         139.0558  142.5862  159.8106 C.ar    1  UNL1        0.1789
     40 C         137.7625  144.1593  163.2105 C.3     1  UNL1        0.2526
     41 O         138.0578  143.9998  161.7486 O.3     1  UNL1       -0.4684
@<TRIPOS>BOND
     1    40    41    1
     2    41    34    1
     3    34    35   ar
     4    35    36   ar
     5    36    37   ar
     6    37    38   ar
     7    38    39   ar
     8    39    33    1
     9    33    27    1
    10    27    28   ar
    11    28    29   ar
    12    29    30   ar
    13    30    31   ar
    14    31    32   ar
    15    32    26    1
    16    26     1    1
    17     1     2    1
    18     2     3    1
    19     3     4    1
    20     4     5    1
    21     5     6    1
    22     4     7    1
    23     7     8    1
    24     8     9    1
    25     9    10   am
    26    10    11    2
    27    10    14    1
    28    14    15   ar
    29    15    16   ar
    30    16    17   ar
    31    17    18   ar
    32    18    19   ar
    33    19    20    1
    34    20    21   ar
    35    21    22   ar
    36    22    23   ar
    37    23    24   ar
    38     9    12    1
    39    12    13    1
    40    39    34   ar
    41    32    27   ar
    42     6     1    1
    43    19    14   ar
    44    24    20   ar
    45    13     4    1
    46    24    25    1
@<TRIPOS>MOLECULE
*****
 41 46 0 0 0
SMALL
GASTEIGER

@<TRIPOS>ATOM
      1 N         143.6028  141.1006  160.4999 N.3     1  UNL1       -0.2689
      2 C         143.1132  142.2245  161.3644 C.3     1  UNL1        0.0724
      3 C         142.9370  142.0144  162.8390 C.3     1  UNL1        0.0175
      4 C         143.2503  140.6804  163.4493 C.3     1  UNL1        0.0060
      5 C         143.7399  139.5566  162.5849 C.3     1  UNL1        0.0175
      6 C         143.9161  139.7667  161.1102 C.3     1  UNL1        0.0724
      7 C         142.7607  141.8043  164.3138 C.3     1  UNL1        0.0217
      8 C         142.5844  141.5942  165.7885 C.3     1  UNL1        0.0937
      9 N         142.8978  140.2603  166.3988 N.am    1  UNL1       -0.2761
     10 C         142.7215  140.0502  167.8735 C.2     1  UNL1        0.2491
     11 O         143.0348  138.7163  168.4838 O.2     1  UNL1       -0.2699
     12 C         143.3874  139.1364  165.5344 C.3     1  UNL1        0.0937
     13 C         143.5636  139.3465  164.0596 C.3     1  UNL1        0.0217
     14 C         142.2319  141.1740  168.7380 C.ar    1  UNL1        0.0566
     15 C         143.2144  142.0466  169.4614 C.ar    1  UNL1        0.0046
     16 C         142.7248  143.1705  170.3258 C.ar    1  UNL1        0.0001
     17 C         141.2527  143.4218  170.4668 C.ar    1  UNL1        0.0001
     18 C         140.2702  142.5492  169.7434 C.ar    1  UNL1        0.0032
     19 C         140.7599  141.4253  168.8789 C.ar    1  UNL1        0.0415
     20 C         139.7774  140.5527  168.1555 C.ar    1  UNL1        0.1807
     21 N         138.8909  139.5168  168.7808 N.ar    1  UNL1       -0.1083
     22 N         138.0746  138.8866  167.6915 N.ar    1  UNL1       -0.0229
     23 N         138.4565  139.5332  166.3930 N.ar    1  UNL1       -0.0464
     24 N         139.5089  140.5629  166.6797 N.ar    1  UNL1       -0.2388
     25 H         139.9466  141.1434  166.0159 H       1  UNL1        0.1923
     26 C         143.7790  141.3107  159.0252 C.3     1  UNL1        0.1022
     27 C         141.4286  141.6914  157.9859 C.ar    1  UNL1        0.1427
     28 C         140.4669  142.5615  157.2319 C.ar    1  UNL1        0.0372
     29 C         140.8942  143.9209  156.7635 C.ar    1  UNL1        0.0031
     30 C         142.2831  144.4102  157.0490 C.ar    1  UNL1       -0.0001
     31 C         143.2447  143.5402  157.8029 C.ar    1  UNL1        0.0001
     32 C         142.8175  142.1807  158.2713 C.ar    1  UNL1        0.0284
     33 O         141.0012  140.3320  158.4543 O.3     1  UNL1       -0.4507
     34 C         138.5000  140.0317  159.0894 C.ar    1  UNL1        0.1730
     35 C         137.4318  139.8999  160.1342 C.ar    1  UNL1        0.0401
     36 C         137.7966  139.9366  161.5886 C.ar    1  UNL1        0.0033
     37 C         139.2298  140.1050  161.9983 C.ar    1  UNL1        0.0033
     38 C         140.2980  140.2368  160.9536 C.ar    1  UNL1        0.0406
     39 C         139.9330  140.2002  159.4990 C.ar    1  UNL1        0.1789
     40 C         137.1765  141.0047  157.0764 C.3     1  UNL1        0.2526
     41 O         138.1350  139.9951  157.6348 O.3     1  UNL1       -0.4684
@<TRIPOS>BOND
     1    40    41    1
     2    41    34    1
     3    34    35   ar
     4    35    36   ar
     5    36    37   ar
     6    37    38   ar
     7    38    39   ar
     8    39    33    1
     9    33    27    1
    10    27    28   ar
    11    28    29   ar
    12    29    30   ar
    13    30    31   ar
    14    31    32   ar
    15    32    26    1
    16    26     1    1
    17     1     2    1
    18     2     3    1
    19     3     4    1
    20     4     5    1
    21     5     6    1
    22     4     7    1
    23     7     8    1
    24     8     9    1
    25     9    10   am
    26    10    11    2
    27    10    14    1
    28    14    15   ar
    29    15    16   ar
    30    16    17   ar
    31    17    18   ar
    32    18    19   ar
    33    19    20    1
    34    20    21   ar
    35    21    22   ar
    36    22    23   ar
    37    23    24   ar
    38     9    12    1
    39    12    13    1
    40    39    34   ar
    41    32    27   ar
    42     6     1    1
    43    19    14   ar
    44    24    20   ar
    45    13     4    1
    46    24    25    1
@<TRIPOS>MOLECULE
*****
 41 46 0 0 0
SMALL
GASTEIGER

@<TRIPOS>ATOM
      1 N         142.2011  141.4489  162.0962 N.3     1  UNL1       -0.2689
      2 C         142.1306  139.9506  162.1121 C.3     1  UNL1        0.0724
      3 C         142.2447  139.1809  160.8297 C.3     1  UNL1        0.0175
      4 C         142.4293  139.9094  159.5316 C.3     1  UNL1        0.0060
      5 C         142.4998  141.4076  159.5157 C.3     1  UNL1        0.0175
      6 C         142.3857  142.1773  160.7981 C.3     1  UNL1        0.0724
      7 C         142.3588  138.4111  159.5473 C.3     1  UNL1        0.0217
      8 C         142.4729  137.6413  158.2650 C.3     1  UNL1        0.0937
      9 N         142.6575  138.3698  156.9668 N.am    1  UNL1       -0.2761
     10 C         142.7716  137.6000  155.6845 C.2     1  UNL1        0.2491
     11 O         142.9562  138.3285  154.3863 O.2     1  UNL1       -0.2699
     12 C         142.7280  139.8680  156.9510 C.3     1  UNL1        0.0937
     13 C         142.6139  140.6379  158.2334 C.3     1  UNL1        0.0217
     14 C         142.7011  136.1017  155.7003 C.ar    1  UNL1        0.0566
     15 C         143.9354  135.2957  155.9770 C.ar    1  UNL1        0.0046
     16 C         143.8649  133.7975  155.9929 C.ar    1  UNL1        0.0001
     17 C         142.5600  133.1052  155.7319 C.ar    1  UNL1        0.0001
     18 C         141.3256  133.9113  155.4552 C.ar    1  UNL1        0.0032
     19 C         141.3962  135.4096  155.4394 C.ar    1  UNL1        0.0415
     20 C         140.1618  136.2156  155.1627 C.ar    1  UNL1        0.1807
     21 N         139.6970  136.6819  153.8149 N.ar    1  UNL1       -0.1083
     22 N         138.4234  137.4514  154.0043 N.ar    1  UNL1       -0.0229
     23 N         138.1011  137.4607  155.4693 N.ar    1  UNL1       -0.0464
     24 N         139.1754  136.6970  156.1852 N.ar    1  UNL1       -0.2388
     25 H         139.2246  136.5394  157.1558 H       1  UNL1        0.1923
     26 C         142.0870  142.2187  163.3786 C.3     1  UNL1        0.1022
     27 C         140.4273  143.1988  165.1206 C.ar    1  UNL1        0.1427
     28 C         139.1673  143.9495  165.4352 C.ar    1  UNL1        0.0372
     29 C         138.3071  144.4707  164.3223 C.ar    1  UNL1        0.0031
     30 C         138.7069  144.2412  162.8949 C.ar    1  UNL1       -0.0001
     31 C         139.9668  143.4905  162.5803 C.ar    1  UNL1        0.0001
     32 C         140.8271  142.9693  163.6932 C.ar    1  UNL1        0.0284
     33 O         141.2875  142.6777  166.2334 O.3     1  UNL1       -0.4507
     34 C         140.0832  140.7082  167.4254 C.ar    1  UNL1        0.1730
     35 C         139.4491  140.1256  168.6536 C.ar    1  UNL1        0.0401
     36 C         139.3852  140.9299  169.9181 C.ar    1  UNL1        0.0033
     37 C         139.9554  142.3169  169.9544 C.ar    1  UNL1        0.0033
     38 C         140.5895  142.8995  168.7262 C.ar    1  UNL1        0.0406
     39 C         140.6534  142.0951  167.4617 C.ar    1  UNL1        0.1789
     40 C         141.4211  139.2121  165.7756 C.3     1  UNL1        0.2526
     41 O         140.1471  139.9038  166.1609 O.3     1  UNL1       -0.4684
@<TRIPOS>BOND
     1    40    41    1
     2    41    34    1
     3    34    35   ar
     4    35    36   ar
     5    36    37   ar
     6    37    38   ar
     7    38    39   ar
     8    39    33    1
     9    33    27    1
    10    27    28   ar
    11    28    29   ar
    12    29    30   ar
    13    30    31   ar
    14    31    32   ar
    15    32    26    1
    16    26     1    1
    17     1     2    1
    18     2     3    1
    19     3     4    1
    20     4     5    1
    21     5     6    1
    22     4     7    1
    23     7     8    1
    24     8     9    1
    25     9    10   am
    26    10    11    2
    27    10    14    1
    28    14    15   ar
    29    15    16   ar
    30    16    17   ar
    31    17    18   ar
    32    18    19   ar
    33    19    20    1
    34    20    21   ar
    35    21    22   ar
    36    22    23   ar
    37    23    24   ar
    38     9    12    1
    39    12    13    1
    40    39    34   ar
    41    32    27   ar
    42     6     1    1
    43    19    14   ar
    44    24    20   ar
    45    13     4    1
    46    24    25    1
@<TRIPOS>MOLECULE
*****
 41 46 0 0 0
SMALL
GASTEIGER

@<TRIPOS>ATOM
      1 N         142.2896  137.5400  157.7260 N.3     1  UNL1       -0.2689
      2 C         142.8867  137.7813  159.0807 C.3     1  UNL1        0.0724
      3 C         142.0833  138.4726  160.1420 C.3     1  UNL1        0.0175
      4 C         140.6827  138.9226  159.8487 C.3     1  UNL1        0.0060
      5 C         140.0857  138.6813  158.4940 C.3     1  UNL1        0.0175
      6 C         140.8891  137.9900  157.4327 C.3     1  UNL1        0.0724
      7 C         141.2798  139.1639  161.2035 C.3     1  UNL1        0.0217
      8 C         140.4764  139.8552  162.2649 C.3     1  UNL1        0.0937
      9 N         139.0758  140.3052  161.9715 N.am    1  UNL1       -0.2761
     10 C         138.2724  140.9965  163.0330 C.2     1  UNL1        0.2491
     11 O         136.8718  141.4464  162.7397 O.2     1  UNL1       -0.2699
     12 C         138.4787  140.0638  160.6169 C.3     1  UNL1        0.0937
     13 C         139.2822  139.3725  159.5554 C.3     1  UNL1        0.0217
     14 C         138.8695  141.2378  164.3877 C.ar    1  UNL1        0.0566
     15 C         138.8673  140.1438  165.4140 C.ar    1  UNL1        0.0046
     16 C         139.4644  140.3852  166.7687 C.ar    1  UNL1        0.0001
     17 C         140.0637  141.7205  167.0971 C.ar    1  UNL1        0.0001
     18 C         140.0659  142.8144  166.0708 C.ar    1  UNL1        0.0032
     19 C         139.4688  142.5730  164.7161 C.ar    1  UNL1        0.0415
     20 C         139.4710  143.6670  163.6898 C.ar    1  UNL1        0.1807
     21 N         140.6824  144.2473  163.0222 N.ar    1  UNL1       -0.1083
     22 N         140.2223  145.3116  162.0707 N.ar    1  UNL1       -0.0229
     23 N         138.7264  145.3892  162.1502 N.ar    1  UNL1       -0.0464
     24 N         138.2620  144.3728  163.1508 N.ar    1  UNL1       -0.2388
     25 H         137.3278  144.1993  163.4085 H       1  UNL1        0.1923
     26 C         143.0931  136.8487  156.6645 C.3     1  UNL1        0.1022
     27 C         141.8195  135.3950  154.9283 C.ar    1  UNL1        0.1427
     28 C         141.2487  135.2164  153.5526 C.ar    1  UNL1        0.0372
     29 C         141.3808  136.3130  152.5376 C.ar    1  UNL1        0.0031
     30 C         142.0837  137.5881  152.8983 C.ar    1  UNL1       -0.0001
     31 C         142.6544  137.7667  154.2739 C.ar    1  UNL1        0.0001
     32 C         142.5224  136.6701  155.2889 C.ar    1  UNL1        0.0284
     33 O         141.6874  134.2985  155.9432 O.3     1  UNL1       -0.4507
     34 C         143.2033  132.2996  155.2674 C.ar    1  UNL1        0.1730
     35 C         144.3672  131.3974  155.5526 C.ar    1  UNL1        0.0401
     36 C         145.1791  131.5918  156.7987 C.ar    1  UNL1        0.0033
     37 C         144.8271  132.6884  157.7598 C.ar    1  UNL1        0.0033
     38 C         143.6632  133.5907  157.4746 C.ar    1  UNL1        0.0406
     39 C         142.8513  133.3962  156.2284 C.ar    1  UNL1        0.1789
     40 C         141.0711  131.3965  154.0891 C.3     1  UNL1        0.2526
     41 O         142.3913  132.1052  154.0211 O.3     1  UNL1       -0.4684
@<TRIPOS>BOND
     1    40    41    1
     2    41    34    1
     3    34    35   ar
     4    35    36   ar
     5    36    37   ar
     6    37    38   ar
     7    38    39   ar
     8    39    33    1
     9    33    27    1
    10    27    28   ar
    11    28    29   ar
    12    29    30   ar
    13    30    31   ar
    14    31    32   ar
    15    32    26    1
    16    26     1    1
    17     1     2    1
    18     2     3    1
    19     3     4    1
    20     4     5    1
    21     5     6    1
    22     4     7    1
    23     7     8    1
    24     8     9    1
    25     9    10   am
    26    10    11    2
    27    10    14    1
    28    14    15   ar
    29    15    16   ar
    30    16    17   ar
    31    17    18   ar
    32    18    19   ar
    33    19    20    1
    34    20    21   ar
    35    21    22   ar
    36    22    23   ar
    37    23    24   ar
    38     9    12    1
    39    12    13    1
    40    39    34   ar
    41    32    27   ar
    42     6     1    1
    43    19    14   ar
    44    24    20   ar
    45    13     4    1
    46    24    25    1
@<TRIPOS>MOLECULE
*****
 41 46 0 0 0
SMALL
GASTEIGER

@<TRIPOS>ATOM
      1 N         143.3487  138.4432  157.1958 N.3     1  UNL1       -0.2689
      2 C         142.6675  138.1332  158.4958 C.3     1  UNL1        0.0724
      3 C         142.6855  139.1372  159.6100 C.3     1  UNL1        0.0175
      4 C         143.3846  140.4513  159.4243 C.3     1  UNL1        0.0060
      5 C         144.0657  140.7613  158.1243 C.3     1  UNL1        0.0175
      6 C         144.0477  139.7573  157.0101 C.3     1  UNL1        0.0724
      7 C         142.7034  140.1412  160.7243 C.3     1  UNL1        0.0217
      8 C         142.7214  141.1453  161.8385 C.3     1  UNL1        0.0937
      9 N         143.4204  142.4594  161.6528 N.am    1  UNL1       -0.2761
     10 C         143.4383  143.4634  162.7671 C.2     1  UNL1        0.2491
     11 O         144.1374  144.7775  162.5814 O.2     1  UNL1       -0.2699
     12 C         144.1015  142.7694  160.3529 C.3     1  UNL1        0.0937
     13 C         144.0836  141.7653  159.2386 C.3     1  UNL1        0.0217
     14 C         142.7572  143.1534  164.0671 C.ar    1  UNL1        0.0566
     15 C         143.4862  142.3890  165.1321 C.ar    1  UNL1        0.0046
     16 C         142.8051  142.0789  166.4321 C.ar    1  UNL1        0.0001
     17 C         141.3949  142.5333  166.6670 C.ar    1  UNL1        0.0001
     18 C         140.6659  143.2977  165.6020 C.ar    1  UNL1        0.0032
     19 C         141.3472  143.6077  164.3020 C.ar    1  UNL1        0.0415
     20 C         140.6182  144.3721  163.2369 C.ar    1  UNL1        0.1807
     21 N         139.7658  143.7803  162.1538 N.ar    1  UNL1       -0.1083
     22 N         139.2344  144.9049  161.3154 N.ar    1  UNL1       -0.0229
     23 N         139.7584  146.1918  161.8804 N.ar    1  UNL1       -0.0464
     24 N         140.6137  145.8626  163.0680 N.ar    1  UNL1       -0.2388
     25 H         141.0886  146.5109  163.6366 H       1  UNL1        0.1923
     26 C         143.3307  137.4391  156.0815 C.3     1  UNL1        0.1022
     27 C         141.9012  135.9913  154.4660 C.ar    1  UNL1        0.1427
     28 C         140.6576  135.7992  153.6494 C.ar    1  UNL1        0.0372
     29 C         139.6002  136.8629  153.6319 C.ar    1  UNL1        0.0031
     30 C         139.7862  138.1187  154.4309 C.ar    1  UNL1       -0.0001
     31 C         141.0297  138.3108  155.2474 C.ar    1  UNL1        0.0001
     32 C         142.0872  137.2471  155.2650 C.ar    1  UNL1        0.0284
     33 O         142.9586  134.9276  154.4835 O.3     1  UNL1       -0.4507
     34 C         142.3893  132.7147  155.7199 C.ar    1  UNL1        0.1730
     35 C         141.9978  131.2672  155.6788 C.ar    1  UNL1        0.0401
     36 C         141.7844  130.5853  154.3600 C.ar    1  UNL1        0.0033
     37 C         141.9623  131.3507  153.0822 C.ar    1  UNL1        0.0033
     38 C         142.3537  132.7982  153.1234 C.ar    1  UNL1        0.0406
     39 C         142.5672  133.4801  154.4423 C.ar    1  UNL1        0.1789
     40 C         143.9907  133.5560  157.5848 C.3     1  UNL1        0.2526
     41 O         142.6028  133.3967  157.0388 O.3     1  UNL1       -0.4684
@<TRIPOS>BOND
     1    40    41    1
     2    41    34    1
     3    34    35   ar
     4    35    36   ar
     5    36    37   ar
     6    37    38   ar
     7    38    39   ar
     8    39    33    1
     9    33    27    1
    10    27    28   ar
    11    28    29   ar
    12    29    30   ar
    13    30    31   ar
    14    31    32   ar
    15    32    26    1
    16    26     1    1
    17     1     2    1
    18     2     3    1
    19     3     4    1
    20     4     5    1
    21     5     6    1
    22     4     7    1
    23     7     8    1
    24     8     9    1
    25     9    10   am
    26    10    11    2
    27    10    14    1
    28    14    15   ar
    29    15    16   ar
    30    16    17   ar
    31    17    18   ar
    32    18    19   ar
    33    19    20    1
    34    20    21   ar
    35    21    22   ar
    36    22    23   ar
    37    23    24   ar
    38     9    12    1
    39    12    13    1
    40    39    34   ar
    41    32    27   ar
    42     6     1    1
    43    19    14   ar
    44    24    20   ar
    45    13     4    1
    46    24    25    1
