@<TRIPOS>MOLECULE
*****
 44 47 0 0 0
SMALL
GASTEIGER

@<TRIPOS>ATOM
      1 C         138.4414  142.3263  162.9959 C.2     1  UNL1        0.2491
      2 O         137.4241  143.4136  163.1766 O.2     1  UNL1       -0.2699
      3 N         138.9254  141.9731  161.6208 N.am    1  UNL1       -0.2732
      4 C         139.9428  140.8858  161.4400 C.3     1  UNL1        0.1110
      5 C         140.4268  140.5326  160.0649 C.3     1  UNL1        0.0939
      6 N         139.8934  141.2667  158.8705 N.3     1  UNL1       -0.2698
      7 C         138.8760  142.3540  159.0512 C.3     1  UNL1        0.0939
      8 C         138.3920  142.7072  160.4264 C.3     1  UNL1        0.1110
      9 C         140.0416  140.1239  166.5791 C.ar    1  UNL1        0.1306
     10 C         138.8977  139.5511  165.7959 C.ar    1  UNL1        0.0110
     11 C         138.3643  140.2852  164.6015 C.ar    1  UNL1        0.0032
     12 C         138.9748  141.5922  164.1903 C.ar    1  UNL1        0.0532
     13 C         140.1187  142.1650  164.9734 C.ar    1  UNL1        0.0032
     14 C         140.6521  141.4309  166.1678 C.ar    1  UNL1        0.0110
     15 C         138.2872  138.2441  166.2072 C.3     1  UNL1        0.0218
     16 C         137.5354  138.9400  167.3028 C.3     1  UNL1        0.0045
     17 C         139.0389  137.5482  165.1115 C.3     1  UNL1        0.0045
     18 C         137.6767  136.9372  166.6184 C.3     1  UNL1        0.0045
     19 C         141.7961  142.0038  166.9509 C.3     1  UNL1        0.0218
     20 C         140.8352  142.8405  167.7424 C.3     1  UNL1        0.0045
     21 C         142.7570  141.1670  166.1595 C.3     1  UNL1        0.0045
     22 C         142.9400  142.5766  167.7340 C.3     1  UNL1        0.0045
     23 C         140.2663  139.8826  169.1561 C.3     1  UNL1        0.2524
     24 O         140.5750  139.3898  167.7734 O.3     1  UNL1       -0.4721
     25 C         140.3774  140.9134  157.4953 C.3     1  UNL1        0.0722
     26 C         141.8066  140.5099  157.2839 C.3     1  UNL1        0.0173
     27 C         142.8968  141.5361  157.3744 C.3     1  UNL1        0.0014
     28 C         144.0007  141.3712  158.3767 C.3     1  UNL1        0.0007
     29 C         144.3469  142.4988  159.3033 C.3     1  UNL1        0.0087
     30 C         143.7116  142.5768  160.6598 C.3     1  UNL1        0.0446
     31 C         144.1673  141.6592  161.7554 C.ar    1  UNL1       -0.0183
     32 C         143.5822  140.2830  161.8730 C.ar    1  UNL1       -0.0017
     33 C         144.0379  139.3654  162.9686 C.ar    1  UNL1        0.0293
     34 C         145.0788  139.8239  163.9466 C.ar    1  UNL1        0.1401
     35 F         145.5345  138.9063  165.0421 F       1  UNL1       -0.2042
     36 C         145.6639  141.2001  163.8289 C.ar    1  UNL1        0.0293
     37 C         145.2082  142.1177  162.7333 C.ar    1  UNL1       -0.0017
     38 C         142.6205  143.5725  160.9208 C.ar    1  UNL1       -0.0183
     39 C         142.1884  143.8600  162.3281 C.ar    1  UNL1       -0.0017
     40 C         141.0973  144.8557  162.5891 C.ar    1  UNL1        0.0293
     41 C         140.4382  145.5638  161.4428 C.ar    1  UNL1        0.1401
     42 F         139.3471  146.5595  161.7038 F       1  UNL1       -0.2042
     43 C         140.8703  145.2763  160.0354 C.ar    1  UNL1        0.0293
     44 C         141.9614  144.2807  159.7744 C.ar    1  UNL1       -0.0017
@<TRIPOS>BOND
     1    23    24    1
     2    24     9    1
     3     9    10   ar
     4    10    15    1
     5    15    16    1
     6    15    17    1
     7    15    18    1
     8    10    11   ar
     9    11    12   ar
    10    12     1    1
    11     1     2    2
    12     1     3   am
    13     3     4    1
    14     4     5    1
    15     5     6    1
    16     6    25    1
    17    25    26    1
    18    26    27    1
    19    27    28    1
    20    28    29    1
    21    29    30    1
    22    30    31    1
    23    31    32   ar
    24    32    33   ar
    25    33    34   ar
    26    34    35    1
    27    34    36   ar
    28    36    37   ar
    29    30    38    1
    30    38    39   ar
    31    39    40   ar
    32    40    41   ar
    33    41    42    1
    34    41    43   ar
    35    43    44   ar
    36     6     7    1
    37     7     8    1
    38    12    13   ar
    39    13    14   ar
    40    14    19    1
    41    19    20    1
    42    19    21    1
    43    19    22    1
    44    14     9   ar
    45     8     3    1
    46    37    31   ar
    47    44    38   ar
@<TRIPOS>MOLECULE
*****
 44 47 0 0 0
SMALL
GASTEIGER

@<TRIPOS>ATOM
      1 C         138.3875  142.6429  163.4446 C.2     1  UNL1        0.2491
      2 O         137.5589  143.8792  163.6310 O.2     1  UNL1       -0.2699
      3 N         138.7468  142.1821  162.0631 N.am    1  UNL1       -0.2732
      4 C         139.5754  140.9456  161.8767 C.3     1  UNL1        0.1110
      5 C         139.9346  140.4848  160.4952 C.3     1  UNL1        0.0939
      6 N         139.4653  141.2604  159.3001 N.3     1  UNL1       -0.2698
      7 C         138.6368  142.4967  159.4865 C.3     1  UNL1        0.0939
      8 C         138.2775  142.9576  160.8680 C.3     1  UNL1        0.1110
      9 C         139.7954  140.3161  167.0299 C.ar    1  UNL1        0.1306
     10 C         140.2938  141.7118  166.7986 C.ar    1  UNL1        0.0110
     11 C         139.8245  142.4874  165.6035 C.ar    1  UNL1        0.0032
     12 C         138.8568  141.8673  164.6397 C.ar    1  UNL1        0.0532
     13 C         138.3584  140.4716  164.8710 C.ar    1  UNL1        0.0032
     14 C         138.8277  139.6960  166.0661 C.ar    1  UNL1        0.0110
     15 C         141.2615  142.3321  167.7624 C.3     1  UNL1        0.0218
     16 C         140.1458  142.5537  168.7401 C.3     1  UNL1        0.0045
     17 C         142.3772  142.1104  166.7847 C.3     1  UNL1        0.0045
     18 C         142.2292  142.9522  168.7262 C.3     1  UNL1        0.0045
     19 C         138.3292  138.3002  166.2973 C.3     1  UNL1        0.0218
     20 C         139.1808  137.8085  165.1647 C.3     1  UNL1        0.0045
     21 C         137.4776  138.7919  167.4300 C.3     1  UNL1        0.0045
     22 C         137.8308  136.9045  166.5286 C.3     1  UNL1        0.0045
     23 C         141.7202  139.2148  168.3833 C.3     1  UNL1        0.2524
     24 O         140.2647  139.5406  168.2250 O.3     1  UNL1       -0.4721
     25 C         139.8247  140.7995  157.9186 C.3     1  UNL1        0.0722
     26 C         141.1641  140.1755  157.6608 C.3     1  UNL1        0.0173
     27 C         142.4170  140.8977  158.0590 C.3     1  UNL1        0.0014
     28 C         143.2084  140.4291  159.2441 C.3     1  UNL1        0.0007
     29 C         143.8928  141.4266  160.1308 C.3     1  UNL1        0.0087
     30 C         143.3026  141.7726  161.4657 C.3     1  UNL1        0.0446
     31 C         143.5340  140.8734  162.6438 C.ar    1  UNL1       -0.0183
     32 C         142.3810  140.1472  163.2710 C.ar    1  UNL1       -0.0017
     33 C         142.6124  139.2480  164.4491 C.ar    1  UNL1        0.0293
     34 C         143.9968  139.0750  165.0000 C.ar    1  UNL1        0.1401
     35 F         144.2282  138.1758  166.1781 F       1  UNL1       -0.2042
     36 C         145.1498  139.8011  164.3728 C.ar    1  UNL1        0.0293
     37 C         144.9184  140.7003  163.1948 C.ar    1  UNL1       -0.0017
     38 C         142.4811  143.0178  161.6225 C.ar    1  UNL1       -0.0183
     39 C         142.1472  143.5283  162.9929 C.ar    1  UNL1       -0.0017
     40 C         141.3256  144.7735  163.1497 C.ar    1  UNL1        0.0293
     41 C         140.8380  145.5081  161.9363 C.ar    1  UNL1        0.1401
     42 F         140.0165  146.7533  162.0931 F       1  UNL1       -0.2042
     43 C         141.1719  144.9976  160.5658 C.ar    1  UNL1        0.0293
     44 C         141.9935  143.7524  160.4090 C.ar    1  UNL1       -0.0017
@<TRIPOS>BOND
     1    23    24    1
     2    24     9    1
     3     9    10   ar
     4    10    15    1
     5    15    16    1
     6    15    17    1
     7    15    18    1
     8    10    11   ar
     9    11    12   ar
    10    12     1    1
    11     1     2    2
    12     1     3   am
    13     3     4    1
    14     4     5    1
    15     5     6    1
    16     6    25    1
    17    25    26    1
    18    26    27    1
    19    27    28    1
    20    28    29    1
    21    29    30    1
    22    30    31    1
    23    31    32   ar
    24    32    33   ar
    25    33    34   ar
    26    34    35    1
    27    34    36   ar
    28    36    37   ar
    29    30    38    1
    30    38    39   ar
    31    39    40   ar
    32    40    41   ar
    33    41    42    1
    34    41    43   ar
    35    43    44   ar
    36     6     7    1
    37     7     8    1
    38    12    13   ar
    39    13    14   ar
    40    14    19    1
    41    19    20    1
    42    19    21    1
    43    19    22    1
    44    14     9   ar
    45     8     3    1
    46    37    31   ar
    47    44    38   ar
@<TRIPOS>MOLECULE
*****
 44 47 0 0 0
SMALL
GASTEIGER

@<TRIPOS>ATOM
      1 C         139.2202  144.1427  164.8249 C.2     1  UNL1        0.2491
      2 O         138.1659  145.0399  165.4022 O.2     1  UNL1       -0.2699
      3 N         139.7610  144.4082  163.4512 N.am    1  UNL1       -0.2732
      4 C         140.8154  143.5109  162.8738 C.3     1  UNL1        0.1110
      5 C         141.3561  143.7765  161.5001 C.3     1  UNL1        0.0939
      6 N         140.8424  144.9392  160.7037 N.3     1  UNL1       -0.2698
      7 C         139.7881  145.8364  161.2810 C.3     1  UNL1        0.0939
      8 C         139.2473  145.5709  162.6548 C.3     1  UNL1        0.1110
      9 C         140.7612  140.6545  167.2141 C.ar    1  UNL1        0.1306
     10 C         141.0737  142.0564  167.6466 C.ar    1  UNL1        0.0110
     11 C         140.5601  143.2191  166.8502 C.ar    1  UNL1        0.0032
     12 C         139.7339  142.9800  165.6213 C.ar    1  UNL1        0.0532
     13 C         139.4213  141.5781  165.1888 C.ar    1  UNL1        0.0032
     14 C         139.9350  140.4154  165.9852 C.ar    1  UNL1        0.0110
     15 C         141.8999  142.2956  168.8755 C.3     1  UNL1        0.0218
     16 C         140.6590  142.2574  169.7173 C.3     1  UNL1        0.0045
     17 C         143.1409  142.3337  168.0338 C.3     1  UNL1        0.0045
     18 C         142.7262  142.5347  170.1044 C.3     1  UNL1        0.0045
     19 C         139.6224  139.0135  165.5527 C.3     1  UNL1        0.0218
     20 C         138.4326  138.9970  166.4660 C.3     1  UNL1        0.0045
     21 C         140.8122  139.0299  164.6395 C.3     1  UNL1        0.0045
     22 C         139.3098  137.6116  165.1202 C.3     1  UNL1        0.0045
     23 C         142.6819  139.0109  167.8135 C.3     1  UNL1        0.2524
     24 O         141.2748  139.4918  168.0105 O.3     1  UNL1       -0.4721
     25 C         141.3832  145.2047  159.3300 C.3     1  UNL1        0.0722
     26 C         141.3447  144.1268  158.2876 C.3     1  UNL1        0.0173
     27 C         142.4525  143.1184  158.2102 C.3     1  UNL1        0.0014
     28 C         142.1573  141.7111  157.7833 C.3     1  UNL1        0.0007
     29 C         142.7221  140.5580  158.5587 C.3     1  UNL1        0.0087
     30 C         142.3725  140.3851  160.0070 C.3     1  UNL1        0.0446
     31 C         141.0130  139.8843  160.3958 C.ar    1  UNL1       -0.0183
     32 C         140.8339  138.4590  160.8276 C.ar    1  UNL1       -0.0017
     33 C         139.4744  137.9582  161.2163 C.ar    1  UNL1        0.0293
     34 C         138.2940  138.8827  161.1733 C.ar    1  UNL1        0.1401
     35 F         136.9346  138.3820  161.5621 F       1  UNL1       -0.2042
     36 C         138.4731  140.3081  160.7416 C.ar    1  UNL1        0.0293
     37 C         139.8326  140.8088  160.3528 C.ar    1  UNL1       -0.0017
     38 C         143.3822  140.7129  161.0667 C.ar    1  UNL1       -0.0183
     39 C         144.2096  141.9590  160.9544 C.ar    1  UNL1       -0.0017
     40 C         145.2194  142.2869  162.0140 C.ar    1  UNL1        0.0293
     41 C         145.4018  141.3687  163.1860 C.ar    1  UNL1        0.1401
     42 F         146.4115  141.6965  164.2456 F       1  UNL1       -0.2042
     43 C         144.5743  140.1225  163.2984 C.ar    1  UNL1        0.0293
     44 C         143.5646  139.7946  162.2387 C.ar    1  UNL1       -0.0017
@<TRIPOS>BOND
     1    23    24    1
     2    24     9    1
     3     9    10   ar
     4    10    15    1
     5    15    16    1
     6    15    17    1
     7    15    18    1
     8    10    11   ar
     9    11    12   ar
    10    12     1    1
    11     1     2    2
    12     1     3   am
    13     3     4    1
    14     4     5    1
    15     5     6    1
    16     6    25    1
    17    25    26    1
    18    26    27    1
    19    27    28    1
    20    28    29    1
    21    29    30    1
    22    30    31    1
    23    31    32   ar
    24    32    33   ar
    25    33    34   ar
    26    34    35    1
    27    34    36   ar
    28    36    37   ar
    29    30    38    1
    30    38    39   ar
    31    39    40   ar
    32    40    41   ar
    33    41    42    1
    34    41    43   ar
    35    43    44   ar
    36     6     7    1
    37     7     8    1
    38    12    13   ar
    39    13    14   ar
    40    14    19    1
    41    19    20    1
    42    19    21    1
    43    19    22    1
    44    14     9   ar
    45     8     3    1
    46    37    31   ar
    47    44    38   ar
@<TRIPOS>MOLECULE
*****
 44 47 0 0 0
SMALL
GASTEIGER

@<TRIPOS>ATOM
      1 C         139.1810  144.2089  164.9633 C.2     1  UNL1        0.2491
      2 O         138.1014  145.0947  165.5107 O.2     1  UNL1       -0.2699
      3 N         139.7522  144.4762  163.6023 N.am    1  UNL1       -0.2732
      4 C         140.8319  143.5904  163.0548 C.3     1  UNL1        0.1110
      5 C         141.4031  143.8577  161.6939 C.3     1  UNL1        0.0939
      6 N         140.8946  145.0108  160.8803 N.3     1  UNL1       -0.2698
      7 C         139.8150  145.8966  161.4278 C.3     1  UNL1        0.0939
      8 C         139.2438  145.6293  162.7888 C.3     1  UNL1        0.1110
      9 C         140.7063  140.7496  167.4038 C.ar    1  UNL1        0.1306
     10 C         139.9300  140.4954  166.1458 C.ar    1  UNL1        0.0110
     11 C         139.4216  141.6485  165.3323 C.ar    1  UNL1        0.0032
     12 C         139.6894  143.0558  165.7768 C.ar    1  UNL1        0.0532
     13 C         140.4657  143.3100  167.0349 C.ar    1  UNL1        0.0032
     14 C         140.9741  142.1569  167.8484 C.ar    1  UNL1        0.0110
     15 C         139.6622  139.0880  165.7012 C.3     1  UNL1        0.0218
     16 C         140.9091  139.1138  164.8679 C.3     1  UNL1        0.0045
     17 C         138.4152  139.0621  166.5345 C.3     1  UNL1        0.0045
     18 C         139.3943  137.6807  165.2566 C.3     1  UNL1        0.0045
     19 C         141.7504  142.4111  169.1065 C.3     1  UNL1        0.0218
     20 C         143.0251  142.4299  168.3162 C.3     1  UNL1        0.0045
     21 C         140.4757  142.3923  169.8969 C.3     1  UNL1        0.0045
     22 C         142.5267  142.6654  170.3646 C.3     1  UNL1        0.0045
     23 C         142.6310  139.1302  168.0542 C.3     1  UNL1        0.2524
     24 O         141.2147  139.5964  168.2174 O.3     1  UNL1       -0.4721
     25 C         141.4659  145.2781  159.5193 C.3     1  UNL1        0.0722
     26 C         141.9949  144.1442  158.6921 C.3     1  UNL1        0.0173
     27 C         141.1835  142.8934  158.5278 C.3     1  UNL1        0.0014
     28 C         141.7710  141.7051  157.8257 C.3     1  UNL1        0.0007
     29 C         142.6022  140.7177  158.5899 C.3     1  UNL1        0.0087
     30 C         142.3049  140.4465  160.0349 C.3     1  UNL1        0.0446
     31 C         143.3353  140.7488  161.0823 C.ar    1  UNL1       -0.0183
     32 C         143.5452  139.7991  162.2241 C.ar    1  UNL1       -0.0017
     33 C         144.5757  140.1013  163.2714 C.ar    1  UNL1        0.0293
     34 C         145.3963  141.3534  163.1768 C.ar    1  UNL1        0.1401
     35 F         146.4267  141.6557  164.2241 F       1  UNL1       -0.2042
     36 C         145.1864  142.3032  162.0349 C.ar    1  UNL1        0.0293
     37 C         144.1560  142.0009  160.9876 C.ar    1  UNL1       -0.0017
     38 C         140.9771  139.8731  160.4327 C.ar    1  UNL1       -0.0183
     39 C         140.4821  138.6115  159.7900 C.ar    1  UNL1       -0.0017
     40 C         139.1543  138.0381  160.1877 C.ar    1  UNL1        0.0293
     41 C         138.3215  138.7263  161.2282 C.ar    1  UNL1        0.1401
     42 F         136.9937  138.1530  161.6260 F       1  UNL1       -0.2042
     43 C         138.8165  139.9881  161.8710 C.ar    1  UNL1        0.0293
     44 C         140.1443  140.5615  161.4733 C.ar    1  UNL1       -0.0017
@<TRIPOS>BOND
     1    23    24    1
     2    24     9    1
     3     9    10   ar
     4    10    15    1
     5    15    16    1
     6    15    17    1
     7    15    18    1
     8    10    11   ar
     9    11    12   ar
    10    12     1    1
    11     1     2    2
    12     1     3   am
    13     3     4    1
    14     4     5    1
    15     5     6    1
    16     6    25    1
    17    25    26    1
    18    26    27    1
    19    27    28    1
    20    28    29    1
    21    29    30    1
    22    30    31    1
    23    31    32   ar
    24    32    33   ar
    25    33    34   ar
    26    34    35    1
    27    34    36   ar
    28    36    37   ar
    29    30    38    1
    30    38    39   ar
    31    39    40   ar
    32    40    41   ar
    33    41    42    1
    34    41    43   ar
    35    43    44   ar
    36     6     7    1
    37     7     8    1
    38    12    13   ar
    39    13    14   ar
    40    14    19    1
    41    19    20    1
    42    19    21    1
    43    19    22    1
    44    14     9   ar
    45     8     3    1
    46    37    31   ar
    47    44    38   ar
@<TRIPOS>MOLECULE
*****
 44 47 0 0 0
SMALL
GASTEIGER

@<TRIPOS>ATOM
      1 C         140.3240  145.3338  160.5040 C.2     1  UNL1        0.2491
      2 O         139.4381  146.3470  161.1662 O.2     1  UNL1       -0.2699
      3 N         141.4707  144.7317  161.2606 N.am    1  UNL1       -0.2732
      4 C         142.3567  143.7184  160.5983 C.3     1  UNL1        0.1110
      5 C         143.5034  143.1164  161.3549 C.3     1  UNL1        0.0939
      6 N         143.7643  143.5275  162.7737 N.3     1  UNL1       -0.2698
      7 C         142.8784  144.5407  163.4359 C.3     1  UNL1        0.0939
      8 C         141.7316  145.1429  162.6793 C.3     1  UNL1        0.1110
      9 C         139.5413  144.1003  156.2477 C.ar    1  UNL1        0.1306
     10 C         139.3344  143.1190  157.3631 C.ar    1  UNL1        0.0110
     11 C         139.5953  143.5301  158.7819 C.ar    1  UNL1        0.0032
     12 C         140.0631  144.9226  159.0852 C.ar    1  UNL1        0.0532
     13 C         140.2700  145.9040  157.9699 C.ar    1  UNL1        0.0032
     14 C         140.0091  145.4928  156.5511 C.ar    1  UNL1        0.0110
     15 C         138.8666  141.7264  157.0597 C.3     1  UNL1        0.0218
     16 C         140.2868  141.2974  156.8388 C.3     1  UNL1        0.0045
     17 C         137.4464  142.1554  157.2806 C.3     1  UNL1        0.0045
     18 C         138.3988  140.3339  156.7564 C.3     1  UNL1        0.0045
     19 C         140.2160  146.4743  155.4357 C.3     1  UNL1        0.0218
     20 C         138.9104  147.1317  155.7720 C.3     1  UNL1        0.0045
     21 C         141.5216  145.8168  155.0993 C.3     1  UNL1        0.0045
     22 C         140.4229  147.4556  154.3203 C.3     1  UNL1        0.0045
     23 C         137.9418  143.9531  154.2057 C.3     1  UNL1        0.2524
     24 O         139.2804  143.6892  154.8289 O.3     1  UNL1       -0.4721
     25 C         144.9111  142.9254  163.5302 C.3     1  UNL1        0.0722
     26 C         145.3692  141.5325  163.2143 C.3     1  UNL1        0.0173
     27 C         145.2537  140.4523  164.2486 C.3     1  UNL1        0.0014
     28 C         144.1028  139.4913  164.2042 C.3     1  UNL1        0.0007
     29 C         142.7407  139.9706  163.7980 C.3     1  UNL1        0.0087
     30 C         141.9362  140.8238  164.7332 C.3     1  UNL1        0.0446
     31 C         140.7884  141.6348  164.2088 C.ar    1  UNL1       -0.0183
     32 C         140.0796  142.6017  165.1103 C.ar    1  UNL1       -0.0017
     33 C         138.9318  143.4127  164.5859 C.ar    1  UNL1        0.0293
     34 C         138.4929  143.2568  163.1600 C.ar    1  UNL1        0.1401
     35 F         137.3452  144.0678  162.6356 F       1  UNL1       -0.2042
     36 C         139.2018  142.2899  162.2585 C.ar    1  UNL1        0.0293
     37 C         140.3495  141.4789  162.7829 C.ar    1  UNL1       -0.0017
     38 C         142.2793  140.8660  166.1928 C.ar    1  UNL1       -0.0183
     39 C         141.9370  139.7043  167.0777 C.ar    1  UNL1       -0.0017
     40 C         142.2801  139.7465  168.5373 C.ar    1  UNL1        0.0293
     41 C         142.9656  140.9505  169.1120 C.ar    1  UNL1        0.1401
     42 F         143.3088  140.9927  170.5716 F       1  UNL1       -0.2042
     43 C         143.3080  142.1124  168.2272 C.ar    1  UNL1        0.0293
     44 C         142.9649  142.0701  166.7675 C.ar    1  UNL1       -0.0017
@<TRIPOS>BOND
     1    23    24    1
     2    24     9    1
     3     9    10   ar
     4    10    15    1
     5    15    16    1
     6    15    17    1
     7    15    18    1
     8    10    11   ar
     9    11    12   ar
    10    12     1    1
    11     1     2    2
    12     1     3   am
    13     3     4    1
    14     4     5    1
    15     5     6    1
    16     6    25    1
    17    25    26    1
    18    26    27    1
    19    27    28    1
    20    28    29    1
    21    29    30    1
    22    30    31    1
    23    31    32   ar
    24    32    33   ar
    25    33    34   ar
    26    34    35    1
    27    34    36   ar
    28    36    37   ar
    29    30    38    1
    30    38    39   ar
    31    39    40   ar
    32    40    41   ar
    33    41    42    1
    34    41    43   ar
    35    43    44   ar
    36     6     7    1
    37     7     8    1
    38    12    13   ar
    39    13    14   ar
    40    14    19    1
    41    19    20    1
    42    19    21    1
    43    19    22    1
    44    14     9   ar
    45     8     3    1
    46    37    31   ar
    47    44    38   ar
@<TRIPOS>MOLECULE
*****
 44 47 0 0 0
SMALL
GASTEIGER

@<TRIPOS>ATOM
      1 C         140.3175  145.3097  160.6287 C.2     1  UNL1        0.2491
      2 O         139.4314  146.3413  161.2614 O.2     1  UNL1       -0.2699
      3 N         141.4417  144.7028  161.4147 N.am    1  UNL1       -0.2732
      4 C         142.3279  143.6711  160.7819 C.3     1  UNL1        0.1110
      5 C         143.4521  143.0641  161.5680 C.3     1  UNL1        0.0939
      6 N         143.6901  143.4888  162.9868 N.3     1  UNL1       -0.2698
      7 C         142.8039  144.5205  163.6195 C.3     1  UNL1        0.0939
      8 C         141.6797  145.1275  162.8335 C.3     1  UNL1        0.1110
      9 C         139.6035  144.0355  156.3723 C.ar    1  UNL1        0.1306
     10 C         139.4005  143.0582  157.4919 C.ar    1  UNL1        0.0110
     11 C         139.6385  143.4829  158.9107 C.ar    1  UNL1        0.0032
     12 C         140.0795  144.8850  159.2099 C.ar    1  UNL1        0.0532
     13 C         140.2825  145.8623  158.0903 C.ar    1  UNL1        0.0032
     14 C         140.0445  145.4376  156.6715 C.ar    1  UNL1        0.0110
     15 C         138.9594  141.6560  157.1927 C.3     1  UNL1        0.0218
     16 C         140.3894  141.2482  156.9955 C.3     1  UNL1        0.0045
     17 C         137.5295  142.0637  157.3899 C.3     1  UNL1        0.0045
     18 C         138.5184  140.2539  156.8935 C.3     1  UNL1        0.0045
     19 C         140.2476  146.4151  155.5519 C.3     1  UNL1        0.0218
     20 C         141.5711  145.7823  155.2396 C.3     1  UNL1        0.0045
     21 C         138.9240  147.0479  155.8643 C.3     1  UNL1        0.0045
     22 C         140.4506  147.3925  154.4324 C.3     1  UNL1        0.0045
     23 C         138.0317  143.8535  154.3117 C.3     1  UNL1        0.2524
     24 O         139.3655  143.6108  154.9535 O.3     1  UNL1       -0.4721
     25 C         144.8143  142.8819  163.7728 C.3     1  UNL1        0.0722
     26 C         144.7321  141.4516  164.2172 C.3     1  UNL1        0.0173
     27 C         143.5714  140.9898  165.0476 C.3     1  UNL1        0.0014
     28 C         143.5176  139.5738  165.5397 C.3     1  UNL1        0.0007
     29 C         142.5351  139.1869  166.6050 C.3     1  UNL1        0.0087
     30 C         141.1509  139.7648  166.5943 C.3     1  UNL1        0.0446
     31 C         140.6935  140.6370  167.7257 C.ar    1  UNL1       -0.0183
     32 C         141.1017  142.0796  167.7729 C.ar    1  UNL1       -0.0017
     33 C         140.6443  142.9519  168.9043 C.ar    1  UNL1        0.0293
     34 C         139.7787  142.3814  169.9885 C.ar    1  UNL1        0.1401
     35 F         139.3213  143.2536  171.1198 F       1  UNL1       -0.2042
     36 C         139.3706  140.9387  169.9412 C.ar    1  UNL1        0.0293
     37 C         139.8280  140.0666  168.8098 C.ar    1  UNL1       -0.0017
     38 C         140.2241  139.4704  165.4522 C.ar    1  UNL1       -0.0183
     39 C         140.1639  138.0884  164.8722 C.ar    1  UNL1       -0.0017
     40 C         139.2371  137.7941  163.7301 C.ar    1  UNL1        0.0293
     41 C         138.3705  138.8818  163.1680 C.ar    1  UNL1        0.1401
     42 F         137.4437  138.5874  162.0258 F       1  UNL1       -0.2042
     43 C         138.4308  140.2638  163.7479 C.ar    1  UNL1        0.0293
     44 C         139.3576  140.5582  164.8900 C.ar    1  UNL1       -0.0017
@<TRIPOS>BOND
     1    23    24    1
     2    24     9    1
     3     9    10   ar
     4    10    15    1
     5    15    16    1
     6    15    17    1
     7    15    18    1
     8    10    11   ar
     9    11    12   ar
    10    12     1    1
    11     1     2    2
    12     1     3   am
    13     3     4    1
    14     4     5    1
    15     5     6    1
    16     6    25    1
    17    25    26    1
    18    26    27    1
    19    27    28    1
    20    28    29    1
    21    29    30    1
    22    30    31    1
    23    31    32   ar
    24    32    33   ar
    25    33    34   ar
    26    34    35    1
    27    34    36   ar
    28    36    37   ar
    29    30    38    1
    30    38    39   ar
    31    39    40   ar
    32    40    41   ar
    33    41    42    1
    34    41    43   ar
    35    43    44   ar
    36     6     7    1
    37     7     8    1
    38    12    13   ar
    39    13    14   ar
    40    14    19    1
    41    19    20    1
    42    19    21    1
    43    19    22    1
    44    14     9   ar
    45     8     3    1
    46    37    31   ar
    47    44    38   ar
@<TRIPOS>MOLECULE
*****
 44 47 0 0 0
SMALL
GASTEIGER

@<TRIPOS>ATOM
      1 C         143.8774  142.7662  161.1100 C.2     1  UNL1        0.2491
      2 O         144.5835  143.8728  161.8358 O.2     1  UNL1       -0.2699
      3 N         143.3888  141.5660  161.8654 N.am    1  UNL1       -0.2732
      4 C         142.6826  140.4593  161.1396 C.3     1  UNL1        0.1110
      5 C         142.1940  139.2591  161.8950 C.3     1  UNL1        0.0939
      6 N         142.4117  139.1654  163.3762 N.3     1  UNL1       -0.2698
      7 C         143.1179  140.2719  164.1020 C.3     1  UNL1        0.0939
      8 C         143.6065  141.4723  163.3466 C.3     1  UNL1        0.1110
      9 C         143.2244  143.0474  156.6666 C.ar    1  UNL1        0.1306
     10 C         144.3324  142.1944  157.2093 C.ar    1  UNL1        0.0110
     11 C         144.5501  142.1007  158.6905 C.ar    1  UNL1        0.0032
     12 C         143.6597  142.8600  159.6289 C.ar    1  UNL1        0.0532
     13 C         142.5517  143.7130  159.0861 C.ar    1  UNL1        0.0032
     14 C         142.3341  143.8067  157.6050 C.ar    1  UNL1        0.0110
     15 C         145.2229  141.4350  156.2709 C.3     1  UNL1        0.0218
     16 C         146.2688  142.5025  156.3995 C.3     1  UNL1        0.0045
     17 C         144.1770  140.3676  156.1423 C.3     1  UNL1        0.0045
     18 C         146.1132  140.6757  155.3325 C.3     1  UNL1        0.0045
     19 C         141.2260  144.6598  157.0622 C.3     1  UNL1        0.0218
     20 C         142.0863  145.8782  157.2210 C.3     1  UNL1        0.0045
     21 C         140.3656  143.4414  156.9035 C.3     1  UNL1        0.0045
     22 C         140.1180  145.5128  156.5195 C.3     1  UNL1        0.0045
     23 C         143.6957  144.2118  154.3924 C.3     1  UNL1        0.2524
     24 O         143.0068  143.1411  155.1854 O.3     1  UNL1       -0.4721
     25 C         141.9231  137.9650  164.1316 C.3     1  UNL1        0.0722
     26 C         140.6634  137.2717  163.7044 C.3     1  UNL1        0.0173
     27 C         139.3286  137.8689  164.0380 C.3     1  UNL1        0.0014
     28 C         138.7746  137.7392  165.4260 C.3     1  UNL1        0.0007
     29 C         138.2411  138.9476  166.1366 C.3     1  UNL1        0.0087
     30 C         139.1542  140.0942  166.4552 C.3     1  UNL1        0.0446
     31 C         140.1541  139.9704  167.5664 C.ar    1  UNL1       -0.0183
     32 C         139.7258  140.1840  168.9880 C.ar    1  UNL1       -0.0017
     33 C         140.7257  140.0601  170.0993 C.ar    1  UNL1        0.0293
     34 C         142.1539  139.7228  169.7889 C.ar    1  UNL1        0.1401
     35 F         143.1538  139.5989  170.9001 F       1  UNL1       -0.2042
     36 C         142.5822  139.5092  168.3673 C.ar    1  UNL1        0.0293
     37 C         141.5823  139.6330  167.2561 C.ar    1  UNL1       -0.0017
     38 C         139.0674  141.3647  165.6625 C.ar    1  UNL1       -0.0183
     39 C         140.0053  142.4977  165.9565 C.ar    1  UNL1       -0.0017
     40 C         139.9185  143.7682  165.1638 C.ar    1  UNL1        0.0293
     41 C         138.8937  143.9057  164.0772 C.ar    1  UNL1        0.1401
     42 F         138.8069  145.1762  163.2845 F       1  UNL1       -0.2042
     43 C         137.9557  142.7727  163.7831 C.ar    1  UNL1        0.0293
     44 C         138.0425  141.5022  164.5758 C.ar    1  UNL1       -0.0017
@<TRIPOS>BOND
     1    23    24    1
     2    24     9    1
     3     9    10   ar
     4    10    15    1
     5    15    16    1
     6    15    17    1
     7    15    18    1
     8    10    11   ar
     9    11    12   ar
    10    12     1    1
    11     1     2    2
    12     1     3   am
    13     3     4    1
    14     4     5    1
    15     5     6    1
    16     6    25    1
    17    25    26    1
    18    26    27    1
    19    27    28    1
    20    28    29    1
    21    29    30    1
    22    30    31    1
    23    31    32   ar
    24    32    33   ar
    25    33    34   ar
    26    34    35    1
    27    34    36   ar
    28    36    37   ar
    29    30    38    1
    30    38    39   ar
    31    39    40   ar
    32    40    41   ar
    33    41    42    1
    34    41    43   ar
    35    43    44   ar
    36     6     7    1
    37     7     8    1
    38    12    13   ar
    39    13    14   ar
    40    14    19    1
    41    19    20    1
    42    19    21    1
    43    19    22    1
    44    14     9   ar
    45     8     3    1
    46    37    31   ar
    47    44    38   ar
@<TRIPOS>MOLECULE
*****
 44 47 0 0 0
SMALL
GASTEIGER

@<TRIPOS>ATOM
      1 C         142.9355  138.3478  160.6977 C.2     1  UNL1        0.2491
      2 O         144.0458  137.6770  161.4509 O.2     1  UNL1       -0.2699
      3 N         141.7359  138.8661  161.4341 N.am    1  UNL1       -0.2732
      4 C         140.6256  139.5369  160.6809 C.3     1  UNL1        0.1110
      5 C         139.4260  140.0552  161.4173 C.3     1  UNL1        0.0939
      6 N         139.3367  139.9027  162.9068 N.3     1  UNL1       -0.2698
      7 C         140.4469  139.2320  163.6600 C.3     1  UNL1        0.0939
      8 C         141.6466  138.7136  162.9237 C.3     1  UNL1        0.1110
      9 C         143.2035  138.8052  156.2291 C.ar    1  UNL1        0.1306
     10 C         142.7869  137.4933  156.8251 C.ar    1  UNL1        0.0110
     11 C         142.6975  137.3408  158.3146 C.ar    1  UNL1        0.0032
     12 C         143.0249  138.5003  159.2082 C.ar    1  UNL1        0.0532
     13 C         143.4415  139.8122  158.6122 C.ar    1  UNL1        0.0032
     14 C         143.5309  139.9647  157.1226 C.ar    1  UNL1        0.0110
     15 C         142.4595  136.3338  155.9315 C.3     1  UNL1        0.0218
     16 C         143.9188  136.0033  155.8257 C.3     1  UNL1        0.0045
     17 C         141.0002  136.6643  156.0373 C.3     1  UNL1        0.0045
     18 C         142.1321  135.1743  155.0380 C.3     1  UNL1        0.0045
     19 C         143.9476  141.2766  156.5267 C.3     1  UNL1        0.0218
     20 C         142.5452  141.7884  156.6728 C.3     1  UNL1        0.0045
     21 C         145.3500  140.7649  156.3806 C.3     1  UNL1        0.0045
     22 C         144.3642  142.5886  155.9307 C.3     1  UNL1        0.0045
     23 C         142.1122  139.4641  153.9653 C.3     1  UNL1        0.2524
     24 O         143.2929  138.9577  154.7395 O.3     1  UNL1       -0.4721
     25 C         138.1370  140.4211  163.6432 C.3     1  UNL1        0.0722
     26 C         137.3965  141.6172  163.1227 C.3     1  UNL1        0.0173
     27 C         137.9541  142.9938  163.3317 C.3     1  UNL1        0.0014
     28 C         138.1654  143.5143  164.7226 C.3     1  UNL1        0.0007
     29 C         139.5272  143.9728  165.1530 C.3     1  UNL1        0.0087
     30 C         140.5310  142.9762  165.6520 C.3     1  UNL1        0.0446
     31 C         141.7911  142.7285  164.8768 C.ar    1  UNL1       -0.0183
     32 C         143.1063  142.6381  165.5924 C.ar    1  UNL1       -0.0017
     33 C         144.3665  142.3904  164.8172 C.ar    1  UNL1        0.0293
     34 C         144.3113  142.2331  163.3265 C.ar    1  UNL1        0.1401
     35 F         145.5713  141.9854  162.5513 F       1  UNL1       -0.2042
     36 C         142.9960  142.3235  162.6109 C.ar    1  UNL1        0.0293
     37 C         141.7360  142.5711  163.3861 C.ar    1  UNL1       -0.0017
     38 C         140.2748  142.2272  166.9261 C.ar    1  UNL1       -0.0183
     39 C         140.4967  142.8992  168.2487 C.ar    1  UNL1       -0.0017
     40 C         140.2405  142.1503  169.5228 C.ar    1  UNL1        0.0293
     41 C         139.7625  140.7293  169.4744 C.ar    1  UNL1        0.1401
     42 F         139.5063  139.9804  170.7486 F       1  UNL1       -0.2042
     43 C         139.5406  140.0573  168.1518 C.ar    1  UNL1        0.0293
     44 C         139.7968  140.8062  166.8777 C.ar    1  UNL1       -0.0017
@<TRIPOS>BOND
     1    23    24    1
     2    24     9    1
     3     9    10   ar
     4    10    15    1
     5    15    16    1
     6    15    17    1
     7    15    18    1
     8    10    11   ar
     9    11    12   ar
    10    12     1    1
    11     1     2    2
    12     1     3   am
    13     3     4    1
    14     4     5    1
    15     5     6    1
    16     6    25    1
    17    25    26    1
    18    26    27    1
    19    27    28    1
    20    28    29    1
    21    29    30    1
    22    30    31    1
    23    31    32   ar
    24    32    33   ar
    25    33    34   ar
    26    34    35    1
    27    34    36   ar
    28    36    37   ar
    29    30    38    1
    30    38    39   ar
    31    39    40   ar
    32    40    41   ar
    33    41    42    1
    34    41    43   ar
    35    43    44   ar
    36     6     7    1
    37     7     8    1
    38    12    13   ar
    39    13    14   ar
    40    14    19    1
    41    19    20    1
    42    19    21    1
    43    19    22    1
    44    14     9   ar
    45     8     3    1
    46    37    31   ar
    47    44    38   ar
@<TRIPOS>MOLECULE
*****
 44 47 0 0 0
SMALL
GASTEIGER

@<TRIPOS>ATOM
      1 C         140.2352  145.3294  160.6691 C.2     1  UNL1        0.2491
      2 O         139.3398  146.3674  161.2781 O.2     1  UNL1       -0.2699
      3 N         141.3575  144.7424  161.4726 N.am    1  UNL1       -0.2732
      4 C         142.2529  143.7043  160.8636 C.3     1  UNL1        0.1110
      5 C         143.3753  143.1173  161.6671 C.3     1  UNL1        0.0939
      6 N         143.6023  143.5682  163.0795 N.3     1  UNL1       -0.2698
      7 C         142.7070  144.6062  163.6885 C.3     1  UNL1        0.0939
      8 C         141.5846  145.1933  162.8851 C.3     1  UNL1        0.1110
      9 C         139.5541  143.9766  156.4316 C.ar    1  UNL1        0.1306
     10 C         139.3336  143.0227  157.5681 C.ar    1  UNL1        0.0110
     11 C         139.5606  143.4737  158.9806 C.ar    1  UNL1        0.0032
     12 C         140.0081  144.8785  159.2566 C.ar    1  UNL1        0.0532
     13 C         140.2286  145.8323  158.1202 C.ar    1  UNL1        0.0032
     14 C         140.0016  145.3813  156.7077 C.ar    1  UNL1        0.0110
     15 C         138.8860  141.6179  157.2921 C.3     1  UNL1        0.0218
     16 C         140.3038  141.1428  157.4106 C.3     1  UNL1        0.0045
     17 C         137.4682  142.0929  157.1735 C.3     1  UNL1        0.0045
     18 C         138.4384  140.2131  157.0160 C.3     1  UNL1        0.0045
     19 C         140.2221  146.3353  155.5712 C.3     1  UNL1        0.0218
     20 C         141.6747  145.9625  155.5403 C.3     1  UNL1        0.0045
     21 C         138.7695  146.7080  155.6022 C.3     1  UNL1        0.0045
     22 C         140.4427  147.2891  154.4348 C.3     1  UNL1        0.0045
     23 C         140.4342  142.8595  154.2574 C.3     1  UNL1        0.2524
     24 O         139.3270  143.5256  155.0192 O.3     1  UNL1       -0.4721
     25 C         144.7248  142.9811  163.8830 C.3     1  UNL1        0.0722
     26 C         144.6815  141.5378  164.2891 C.3     1  UNL1        0.0173
     27 C         143.4948  141.0039  165.0350 C.3     1  UNL1        0.0014
     28 C         143.5088  139.5986  165.5596 C.3     1  UNL1        0.0007
     29 C         142.5094  139.1744  166.5946 C.3     1  UNL1        0.0087
     30 C         141.1264  139.7550  166.5840 C.3     1  UNL1        0.0446
     31 C         140.2032  139.4725  165.4360 C.ar    1  UNL1       -0.0183
     32 C         139.5857  140.6071  164.6734 C.ar    1  UNL1       -0.0017
     33 C         138.6625  140.3246  163.5254 C.ar    1  UNL1        0.0293
     34 C         138.3567  138.9076  163.1400 C.ar    1  UNL1        0.1401
     35 F         137.4335  138.6251  161.9920 F       1  UNL1       -0.2042
     36 C         138.9743  137.7730  163.9026 C.ar    1  UNL1        0.0293
     37 C         139.8974  138.0555  165.0506 C.ar    1  UNL1       -0.0017
     38 C         140.6666  140.6181  167.7214 C.ar    1  UNL1       -0.0183
     39 C         141.0918  142.0548  167.7923 C.ar    1  UNL1       -0.0017
     40 C         140.6319  142.9178  168.9296 C.ar    1  UNL1        0.0293
     41 C         139.7469  142.3442  169.9962 C.ar    1  UNL1        0.1401
     42 F         139.2870  143.2073  171.1336 F       1  UNL1       -0.2042
     43 C         139.3216  140.9075  169.9254 C.ar    1  UNL1        0.0293
     44 C         139.7814  140.0444  168.7880 C.ar    1  UNL1       -0.0017
@<TRIPOS>BOND
     1    23    24    1
     2    24     9    1
     3     9    10   ar
     4    10    15    1
     5    15    16    1
     6    15    17    1
     7    15    18    1
     8    10    11   ar
     9    11    12   ar
    10    12     1    1
    11     1     2    2
    12     1     3   am
    13     3     4    1
    14     4     5    1
    15     5     6    1
    16     6    25    1
    17    25    26    1
    18    26    27    1
    19    27    28    1
    20    28    29    1
    21    29    30    1
    22    30    31    1
    23    31    32   ar
    24    32    33   ar
    25    33    34   ar
    26    34    35    1
    27    34    36   ar
    28    36    37   ar
    29    30    38    1
    30    38    39   ar
    31    39    40   ar
    32    40    41   ar
    33    41    42    1
    34    41    43   ar
    35    43    44   ar
    36     6     7    1
    37     7     8    1
    38    12    13   ar
    39    13    14   ar
    40    14    19    1
    41    19    20    1
    42    19    21    1
    43    19    22    1
    44    14     9   ar
    45     8     3    1
    46    37    31   ar
    47    44    38   ar
