@<TRIPOS>MOLECULE
*****
 31 34 0 0 0
SMALL
GASTEIGER

@<TRIPOS>ATOM
      1 C         139.6924  144.5546  161.7591 C.ar    1  UNL1        0.1412
      2 C         138.6033  144.7002  162.7802 C.ar    1  UNL1        0.0710
      3 S         139.1124  144.1554  164.0818 S.2     1  UNL1       -0.0670
      4 C         140.5162  143.6731  163.8650 C.ar    1  UNL1        0.1122
      5 N         140.8746  143.9199  162.4295 N.ar    1  UNL1       -0.2259
      6 C         141.4054  143.0530  164.9017 C.3     1  UNL1        0.1549
      7 C         139.9330  142.7669  164.9083 C.3     1  UNL1        0.1705
      8 O         139.3498  141.8606  165.9516 O.3     1  UNL1       -0.3538
      9 C         140.2390  141.2405  166.9883 C.3     1  UNL1        0.1155
     10 C         139.6558  140.3342  168.0317 C.3     1  UNL1        0.0320
     11 C         141.7114  141.5267  166.9817 C.3     1  UNL1        0.0328
     12 C         142.2946  142.4329  165.9384 C.3     1  UNL1        0.0426
     13 C         143.7671  142.7191  165.9318 C.3     1  UNL1        0.0673
     14 S         144.3503  143.6254  164.8885 S.3     1  UNL1       -0.0807
     15 C         143.4611  144.2455  163.8518 C.2     1  UNL1        0.1483
     16 N         144.0444  145.1518  162.8084 N.pl3   1  UNL1       -0.3380
     17 N         141.9887  143.9593  163.8584 N.2     1  UNL1       -0.2464
     18 H         145.0108  145.3396  162.8041 H       1  UNL1        0.1442
     19 H         143.4608  145.5588  162.1280 H       1  UNL1        0.1442
     20 C         140.8701  145.1630  159.5246 C.2     1  UNL1        0.2683
     21 O         142.2064  144.9391  160.1680 O.2     1  UNL1       -0.2681
     22 N         139.6131  144.9707  160.3202 N.am    1  UNL1       -0.2641
     23 H         138.7360  145.1177  159.8979 H       1  UNL1        0.1566
     24 C         140.6320  146.4113  155.2078 C.ar    1  UNL1        0.1578
     25 C         141.7494  145.5246  155.6716 C.ar    1  UNL1        0.0402
     26 C         141.8288  145.1085  157.1105 C.ar    1  UNL1        0.0269
     27 C         140.7907  145.5791  158.0857 C.ar    1  UNL1        0.1350
     28 N         139.6732  146.4658  157.6219 N.ar    1  UNL1       -0.2361
     29 C         139.5939  146.8819  156.1829 C.ar    1  UNL1        0.1357
     30 C         140.4973  148.2830  153.4110 C.3     1  UNL1        0.2525
     31 O         140.5527  146.8274  153.7689 O.3     1  UNL1       -0.4699
@<TRIPOS>BOND
     1    30    31    1
     2    31    24    1
     3    24    25   ar
     4    25    26   ar
     5    26    27   ar
     6    27    20    1
     7    20    21    2
     8    20    22   am
     9    22     1    1
    10     1     2   ar
    11     2     3   ar
    12     3     4   ar
    13     6     4    1
    14     6     7    1
    15     7     8    1
    16     8     9    1
    17     9    10    1
    18     9    11    1
    19    12    11    1
    20    12    13    1
    21    13    14    1
    22    14    15    1
    23    15    16    1
    24    15    17    2
    25     4     5   ar
    26    27    28   ar
    27    28    29   ar
    28    29    24   ar
    29     5     1   ar
    30    12     6    1
    31    17     6    1
    32    22    23    1
    33    16    18    1
    34    16    19    1
@<TRIPOS>MOLECULE
*****
 31 34 0 0 0
SMALL
GASTEIGER

@<TRIPOS>ATOM
      1 C         141.4633  145.0926  161.2418 C.ar    1  UNL1        0.1412
      2 C         140.5369  145.5497  162.3293 C.ar    1  UNL1        0.0710
      3 S         140.8544  144.7664  163.5685 S.2     1  UNL1       -0.0670
      4 C         141.9772  143.8251  163.2468 C.ar    1  UNL1        0.1122
      5 N         142.3535  144.0267  161.8088 N.ar    1  UNL1       -0.2259
      6 C         142.6122  142.8529  164.1964 C.3     1  UNL1        0.1549
      7 C         141.3291  143.5352  164.5681 C.3     1  UNL1        0.1705
      8 O         140.6810  143.2453  165.8894 O.3     1  UNL1       -0.3538
      9 C         141.3160  142.2731  166.8390 C.3     1  UNL1        0.1155
     10 C         140.6678  141.9832  168.1603 C.3     1  UNL1        0.0320
     11 C         142.5990  141.5908  166.4672 C.3     1  UNL1        0.0328
     12 C         143.2471  141.8807  165.1459 C.3     1  UNL1        0.0426
     13 C         144.5303  141.1984  164.7741 C.3     1  UNL1        0.0673
     14 S         145.1783  141.4883  163.4528 S.3     1  UNL1       -0.0807
     15 C         144.5434  142.4605  162.5033 C.2     1  UNL1        0.1483
     16 N         145.1915  142.7504  161.1819 N.pl3   1  UNL1       -0.3380
     17 N         143.2603  143.1428  162.8750 N.2     1  UNL1       -0.2464
     18 H         146.0337  142.3026  160.9379 H       1  UNL1        0.1442
     19 H         144.7748  143.3885  160.5586 H       1  UNL1        0.1442
     20 C         140.4965  145.1137  158.8304 C.2     1  UNL1        0.2683
     21 O         139.4680  144.0992  159.2339 O.2     1  UNL1       -0.2681
     22 N         141.4941  145.6104  159.8344 N.am    1  UNL1       -0.2641
     23 H         142.1692  146.2763  159.5696 H       1  UNL1        0.1566
     24 C         140.5891  146.6674  154.6081 C.ar    1  UNL1        0.1578
     25 C         141.5276  145.5743  155.0258 C.ar    1  UNL1        0.0402
     26 C         141.4967  145.0564  156.4332 C.ar    1  UNL1        0.0269
     27 C         140.5273  145.6316  157.4230 C.ar    1  UNL1        0.1350
     28 N         139.5889  146.7247  157.0053 N.ar    1  UNL1       -0.2361
     29 C         139.6198  147.2426  155.5978 C.ar    1  UNL1        0.1357
     30 C         140.4707  148.6545  152.9387 C.3     1  UNL1        0.2525
     31 O         140.6201  147.1852  153.2007 O.3     1  UNL1       -0.4699
@<TRIPOS>BOND
     1    30    31    1
     2    31    24    1
     3    24    25   ar
     4    25    26   ar
     5    26    27   ar
     6    27    20    1
     7    20    21    2
     8    20    22   am
     9    22     1    1
    10     1     2   ar
    11     2     3   ar
    12     3     4   ar
    13     6     4    1
    14     6     7    1
    15     7     8    1
    16     8     9    1
    17     9    10    1
    18     9    11    1
    19    12    11    1
    20    12    13    1
    21    13    14    1
    22    14    15    1
    23    15    16    1
    24    15    17    2
    25     4     5   ar
    26    27    28   ar
    27    28    29   ar
    28    29    24   ar
    29     5     1   ar
    30    12     6    1
    31    17     6    1
    32    22    23    1
    33    16    18    1
    34    16    19    1
@<TRIPOS>MOLECULE
*****
 31 34 0 0 0
SMALL
GASTEIGER

@<TRIPOS>ATOM
      1 C         142.0192  144.2771  161.7375 C.ar    1  UNL1        0.1412
      2 C         142.0232  144.9964  163.0537 C.ar    1  UNL1        0.0710
      3 S         142.1177  143.9694  164.1430 S.2     1  UNL1       -0.0670
      4 C         142.1720  142.6153  163.4998 C.ar    1  UNL1        0.1122
      5 N         142.1112  142.8055  162.0132 N.ar    1  UNL1       -0.2259
      6 C         142.2701  141.3017  164.2174 C.3     1  UNL1        0.1549
      7 C         140.9443  141.9927  164.0956 C.3     1  UNL1        0.1705
      8 O         139.7166  141.3701  164.6914 O.3     1  UNL1       -0.3538
      9 C         139.8146  140.0565  165.4089 C.3     1  UNL1        0.1155
     10 C         138.5868  139.4339  166.0047 C.3     1  UNL1        0.0320
     11 C         141.1404  139.3655  165.5307 C.3     1  UNL1        0.0328
     12 C         142.3681  139.9881  164.9349 C.3     1  UNL1        0.0426
     13 C         143.6940  139.2972  165.0567 C.3     1  UNL1        0.0673
     14 S         144.9217  139.9198  164.4609 S.3     1  UNL1       -0.0807
     15 C         144.8237  141.2334  163.7433 C.2     1  UNL1        0.1483
     16 N         146.0515  141.8560  163.1475 N.pl3   1  UNL1       -0.3380
     17 N         143.4979  141.9243  163.6216 N.2     1  UNL1       -0.2464
     18 H         146.9216  141.4024  163.2275 H       1  UNL1        0.1442
     19 H         145.9871  142.7181  162.6766 H       1  UNL1        0.1442
     20 C         140.6577  144.8606  159.6031 C.2     1  UNL1        0.2683
     21 O         139.4595  144.1643  160.1769 O.2     1  UNL1       -0.2681
     22 N         141.9375  144.9170  160.3834 N.am    1  UNL1       -0.2641
     23 H         142.7239  145.3741  160.0067 H       1  UNL1        0.1566
     24 C         140.4129  146.7805  155.5405 C.ar    1  UNL1        0.1578
     25 C         141.5314  145.8320  155.8557 C.ar    1  UNL1        0.0402
     26 C         141.6130  145.1921  157.2098 C.ar    1  UNL1        0.0269
     27 C         140.5761  145.5006  158.2489 C.ar    1  UNL1        0.1350
     28 N         139.4575  146.4490  157.9338 N.ar    1  UNL1       -0.2361
     29 C         139.3760  147.0890  156.5795 C.ar    1  UNL1        0.1357
     30 C         140.0138  148.8814  154.0651 C.3     1  UNL1        0.2525
     31 O         140.3314  147.4204  154.1864 O.3     1  UNL1       -0.4699
@<TRIPOS>BOND
     1    30    31    1
     2    31    24    1
     3    24    25   ar
     4    25    26   ar
     5    26    27   ar
     6    27    20    1
     7    20    21    2
     8    20    22   am
     9    22     1    1
    10     1     2   ar
    11     2     3   ar
    12     3     4   ar
    13     6     4    1
    14     6     7    1
    15     7     8    1
    16     8     9    1
    17     9    10    1
    18     9    11    1
    19    12    11    1
    20    12    13    1
    21    13    14    1
    22    14    15    1
    23    15    16    1
    24    15    17    2
    25     4     5   ar
    26    27    28   ar
    27    28    29   ar
    28    29    24   ar
    29     5     1   ar
    30    12     6    1
    31    17     6    1
    32    22    23    1
    33    16    18    1
    34    16    19    1
@<TRIPOS>MOLECULE
*****
 31 34 0 0 0
SMALL
GASTEIGER

@<TRIPOS>ATOM
      1 C         138.9262  143.4287  162.0263 C.ar    1  UNL1        0.1412
      2 C         137.9996  144.1879  162.9292 C.ar    1  UNL1        0.0710
      3 S         138.0194  143.5267  164.2756 S.2     1  UNL1       -0.0670
      4 C         138.9583  142.3590  164.2047 C.ar    1  UNL1        0.1122
      5 N         139.5187  142.2984  162.8146 N.ar    1  UNL1       -0.2259
      6 C         139.2803  141.4172  165.3269 C.3     1  UNL1        0.1549
      7 C         139.4942  142.8916  165.5005 C.3     1  UNL1        0.1705
      8 O         140.0301  143.4242  166.7962 O.3     1  UNL1       -0.3538
      9 C         140.3520  142.4824  167.9184 C.3     1  UNL1        0.1155
     10 C         140.8879  143.0151  169.2143 C.3     1  UNL1        0.0320
     11 C         140.1381  141.0080  167.7449 C.3     1  UNL1        0.0328
     12 C         139.6022  140.4753  166.4491 C.3     1  UNL1        0.0426
     13 C         139.3883  139.0008  166.2755 C.3     1  UNL1        0.0673
     14 S         138.8524  138.4682  164.9797 S.3     1  UNL1       -0.0807
     15 C         138.5304  139.4100  163.8575 C.2     1  UNL1        0.1483
     16 N         137.9945  138.8773  162.5616 N.pl3   1  UNL1       -0.3380
     17 N         138.7444  140.8844  164.0311 N.2     1  UNL1       -0.2464
     18 H         137.8541  137.9095  162.4477 H       1  UNL1        0.1442
     19 H         137.7832  139.4954  161.8251 H       1  UNL1        0.1442
     20 C         140.4128  144.5636  160.2230 C.2     1  UNL1        0.2683
     21 O         141.3311  145.0670  161.2968 O.2     1  UNL1       -0.2681
     22 N         139.2103  143.7445  160.5878 N.am    1  UNL1       -0.2641
     23 H         138.6075  143.4141  159.8830 H       1  UNL1        0.1566
     24 C         141.2649  145.5108  155.9071 C.ar    1  UNL1        0.1578
     25 C         140.0402  144.7268  156.2753 C.ar    1  UNL1        0.0402
     26 C         139.7562  144.4111  157.7139 C.ar    1  UNL1        0.0269
     27 C         140.6968  144.8794  158.7844 C.ar    1  UNL1        0.1350
     28 N         141.9215  145.6634  158.4163 N.ar    1  UNL1       -0.2361
     29 C         142.2055  145.9791  156.9776 C.ar    1  UNL1        0.1357
     30 C         140.7182  146.8454  153.7461 C.3     1  UNL1        0.2525
     31 O         141.5489  145.8265  154.4685 O.3     1  UNL1       -0.4699
@<TRIPOS>BOND
     1    30    31    1
     2    31    24    1
     3    24    25   ar
     4    25    26   ar
     5    26    27   ar
     6    27    20    1
     7    20    21    2
     8    20    22   am
     9    22     1    1
    10     1     2   ar
    11     2     3   ar
    12     3     4   ar
    13     6     4    1
    14     6     7    1
    15     7     8    1
    16     8     9    1
    17     9    10    1
    18     9    11    1
    19    12    11    1
    20    12    13    1
    21    13    14    1
    22    14    15    1
    23    15    16    1
    24    15    17    2
    25     4     5   ar
    26    27    28   ar
    27    28    29   ar
    28    29    24   ar
    29     5     1   ar
    30    12     6    1
    31    17     6    1
    32    22    23    1
    33    16    18    1
    34    16    19    1
@<TRIPOS>MOLECULE
*****
 31 34 0 0 0
SMALL
GASTEIGER

@<TRIPOS>ATOM
      1 C         142.7156  144.1033  162.5597 C.ar    1  UNL1        0.1412
      2 C         144.0721  143.8875  163.1624 C.ar    1  UNL1        0.0710
      3 S         143.8910  143.1686  164.4664 S.2     1  UNL1       -0.0670
      4 C         142.4224  142.9400  164.6695 C.ar    1  UNL1        0.1122
      5 N         141.6961  143.5177  163.4911 N.ar    1  UNL1       -0.2259
      6 C         141.7911  142.2542  165.8447 C.3     1  UNL1        0.1549
      7 C         143.1195  142.9338  165.9976 C.3     1  UNL1        0.1705
      8 O         143.8167  142.9275  167.3257 O.3     1  UNL1       -0.3538
      9 C         143.1854  142.2417  168.5010 C.3     1  UNL1        0.1155
     10 C         143.8826  142.2355  169.8291 C.3     1  UNL1        0.0320
     11 C         141.8570  141.5621  168.3480 C.3     1  UNL1        0.0328
     12 C         141.1598  141.5684  167.0199 C.3     1  UNL1        0.0426
     13 C         139.8314  140.8887  166.8670 C.3     1  UNL1        0.0673
     14 S         139.1342  140.8950  165.5389 S.3     1  UNL1       -0.0807
     15 C         139.7655  141.5808  164.3637 C.2     1  UNL1        0.1483
     16 N         139.0683  141.5870  163.0355 N.pl3   1  UNL1       -0.3380
     17 N         141.0939  142.2604  164.5166 N.2     1  UNL1       -0.2464
     18 H         138.1964  141.1410  162.9351 H       1  UNL1        0.1442
     19 H         139.4826  142.0372  162.2642 H       1  UNL1        0.1442
     20 C         141.8388  144.0073  160.1160 C.2     1  UNL1        0.2683
     21 O         141.5351  142.5479  160.2822 O.2     1  UNL1       -0.2681
     22 N         142.4291  144.7850  161.2547 N.am    1  UNL1       -0.2641
     23 H         142.6284  145.7429  161.1455 H       1  UNL1        0.1566
     24 C         140.9791  146.0526  156.2009 C.ar    1  UNL1        0.1578
     25 C         140.0492  146.2368  157.3634 C.ar    1  UNL1        0.0402
     26 C         140.3357  145.5550  158.6684 C.ar    1  UNL1        0.0269
     27 C         141.5523  144.6890  158.8109 C.ar    1  UNL1        0.1350
     28 N         142.4822  144.5049  157.6484 N.ar    1  UNL1       -0.2361
     29 C         142.1956  145.1867  156.3434 C.ar    1  UNL1        0.1357
     30 C         139.5030  147.6391  154.7678 C.3     1  UNL1        0.2525
     31 O         140.6925  146.7344  154.8959 O.3     1  UNL1       -0.4699
@<TRIPOS>BOND
     1    30    31    1
     2    31    24    1
     3    24    25   ar
     4    25    26   ar
     5    26    27   ar
     6    27    20    1
     7    20    21    2
     8    20    22   am
     9    22     1    1
    10     1     2   ar
    11     2     3   ar
    12     3     4   ar
    13     6     4    1
    14     6     7    1
    15     7     8    1
    16     8     9    1
    17     9    10    1
    18     9    11    1
    19    12    11    1
    20    12    13    1
    21    13    14    1
    22    14    15    1
    23    15    16    1
    24    15    17    2
    25     4     5   ar
    26    27    28   ar
    27    28    29   ar
    28    29    24   ar
    29     5     1   ar
    30    12     6    1
    31    17     6    1
    32    22    23    1
    33    16    18    1
    34    16    19    1
@<TRIPOS>MOLECULE
*****
 31 34 0 0 0
SMALL
GASTEIGER

@<TRIPOS>ATOM
      1 C         141.5144  141.7276  161.8255 C.ar    1  UNL1        0.1412
      2 C         142.4846  140.5910  161.9556 C.ar    1  UNL1        0.0710
      3 S         142.4765  140.1361  163.3850 S.2     1  UNL1       -0.0670
      4 C         141.5013  140.9915  164.1382 C.ar    1  UNL1        0.1122
      5 N         140.9067  141.9751  163.1744 N.ar    1  UNL1       -0.2259
      6 C         141.1776  140.8825  165.5988 C.3     1  UNL1        0.1549
      7 C         140.3228  140.1792  164.5866 C.3     1  UNL1        0.1705
      8 O         139.1442  139.3668  165.0350 O.3     1  UNL1       -0.3538
      9 C         138.8205  139.2578  166.4955 C.3     1  UNL1        0.1155
     10 C         137.6419  138.4454  166.9439 C.3     1  UNL1        0.0320
     11 C         139.6753  139.9611  167.5078 C.3     1  UNL1        0.0328
     12 C         140.8538  140.7734  167.0594 C.3     1  UNL1        0.0426
     13 C         141.7087  141.4768  168.0716 C.3     1  UNL1        0.0673
     14 S         142.8873  142.2891  167.6232 S.3     1  UNL1       -0.0807
     15 C         143.2110  142.3982  166.1626 C.2     1  UNL1        0.1483
     16 N         144.3896  143.2106  165.7143 N.pl3   1  UNL1       -0.3380
     17 N         142.3562  141.6949  165.1504 N.2     1  UNL1       -0.2464
     18 H         144.9507  143.6722  166.3787 H       1  UNL1        0.1442
     19 H         144.6021  143.2821  164.7557 H       1  UNL1        0.1442
     20 C         141.8661  143.8051  160.3056 C.2     1  UNL1        0.2683
     21 O         142.8344  144.3702  161.3019 O.2     1  UNL1       -0.2681
     22 N         141.2060  142.4838  160.5673 N.am    1  UNL1       -0.2641
     23 H         140.5704  142.1130  159.9134 H       1  UNL1        0.1566
     24 C         140.9409  146.0737  156.5309 C.ar    1  UNL1        0.1578
     25 C         142.1436  145.1793  156.5928 C.ar    1  UNL1        0.0402
     26 C         142.4520  144.4231  157.8510 C.ar    1  UNL1        0.0269
     27 C         141.5577  144.5613  159.0474 C.ar    1  UNL1        0.1350
     28 N         140.3551  145.4557  158.9855 N.ar    1  UNL1       -0.2361
     29 C         140.0467  146.2119  157.7272 C.ar    1  UNL1        0.1357
     30 C         139.2951  147.4868  155.1011 C.3     1  UNL1        0.2525
     31 O         140.6326  146.8298  155.2727 O.3     1  UNL1       -0.4699
@<TRIPOS>BOND
     1    30    31    1
     2    31    24    1
     3    24    25   ar
     4    25    26   ar
     5    26    27   ar
     6    27    20    1
     7    20    21    2
     8    20    22   am
     9    22     1    1
    10     1     2   ar
    11     2     3   ar
    12     3     4   ar
    13     6     4    1
    14     6     7    1
    15     7     8    1
    16     8     9    1
    17     9    10    1
    18     9    11    1
    19    12    11    1
    20    12    13    1
    21    13    14    1
    22    14    15    1
    23    15    16    1
    24    15    17    2
    25     4     5   ar
    26    27    28   ar
    27    28    29   ar
    28    29    24   ar
    29     5     1   ar
    30    12     6    1
    31    17     6    1
    32    22    23    1
    33    16    18    1
    34    16    19    1
@<TRIPOS>MOLECULE
*****
 31 34 0 0 0
SMALL
GASTEIGER

@<TRIPOS>ATOM
      1 C         141.2314  144.7424  162.6071 C.ar    1  UNL1        0.1412
      2 C         140.1377  145.6107  162.0593 C.ar    1  UNL1        0.0710
      3 S         140.2587  145.6207  160.5642 S.2     1  UNL1       -0.0670
      4 C         141.4273  144.7586  160.1880 C.ar    1  UNL1        0.1122
      5 N         142.0283  144.2159  161.4506 N.ar    1  UNL1       -0.2259
      6 C         141.9099  144.4870  158.7940 C.3     1  UNL1        0.1549
      7 C         140.7794  145.4459  159.0228 C.3     1  UNL1        0.1705
      8 O         140.1316  146.1333  157.8575 O.3     1  UNL1       -0.3538
      9 C         140.6142  145.8617  156.4635 C.3     1  UNL1        0.1155
     10 C         139.9663  146.5491  155.2983 C.3     1  UNL1        0.0320
     11 C         141.7447  144.9027  156.2347 C.3     1  UNL1        0.0328
     12 C         142.3925  144.2154  157.4000 C.3     1  UNL1        0.0426
     13 C         143.5231  143.2564  157.1712 C.3     1  UNL1        0.0673
     14 S         144.1709  142.5690  158.3364 S.3     1  UNL1       -0.0807
     15 C         143.6883  142.8406  159.7304 C.2     1  UNL1        0.1483
     16 N         144.3362  142.1532  160.8957 N.pl3   1  UNL1       -0.3380
     17 N         142.5578  143.7996  159.9592 N.2     1  UNL1       -0.2464
     18 H         145.0782  141.5238  160.7455 H       1  UNL1        0.1442
     19 H         144.0194  142.3315  161.8107 H       1  UNL1        0.1442
     20 C         141.2290  143.0778  164.6018 C.2     1  UNL1        0.2683
     21 O         140.7219  141.9943  163.6970 O.2     1  UNL1       -0.2681
     22 N         141.4837  144.4519  164.0568 N.am    1  UNL1       -0.2641
     23 H         141.8166  145.1631  164.6507 H       1  UNL1        0.1566
     24 C         141.9861  142.2064  168.9513 C.ar    1  UNL1        0.1578
     25 C         140.6030  142.5529  168.4855 C.ar    1  UNL1        0.0402
     26 C         140.3506  142.8434  167.0357 C.ar    1  UNL1        0.0269
     27 C         141.4814  142.7873  166.0516 C.ar    1  UNL1        0.1350
     28 N         142.8645  142.4408  166.5174 N.ar    1  UNL1       -0.2361
     29 C         143.1168  142.1503  167.9673 C.ar    1  UNL1        0.1357
     30 C         141.1295  141.3928  171.2652 C.3     1  UNL1        0.2525
     31 O         142.2384  141.9159  170.4010 O.3     1  UNL1       -0.4699
@<TRIPOS>BOND
     1    30    31    1
     2    31    24    1
     3    24    25   ar
     4    25    26   ar
     5    26    27   ar
     6    27    20    1
     7    20    21    2
     8    20    22   am
     9    22     1    1
    10     1     2   ar
    11     2     3   ar
    12     3     4   ar
    13     6     4    1
    14     6     7    1
    15     7     8    1
    16     8     9    1
    17     9    10    1
    18     9    11    1
    19    12    11    1
    20    12    13    1
    21    13    14    1
    22    14    15    1
    23    15    16    1
    24    15    17    2
    25     4     5   ar
    26    27    28   ar
    27    28    29   ar
    28    29    24   ar
    29     5     1   ar
    30    12     6    1
    31    17     6    1
    32    22    23    1
    33    16    18    1
    34    16    19    1
@<TRIPOS>MOLECULE
*****
 31 34 0 0 0
SMALL
GASTEIGER

@<TRIPOS>ATOM
      1 C         139.8216  139.1975  161.7034 C.ar    1  UNL1        0.1412
      2 C         138.6817  138.6823  162.5310 C.ar    1  UNL1        0.0710
      3 S         138.5270  139.5842  163.7196 S.2     1  UNL1       -0.0670
      4 C         139.5715  140.6568  163.6265 C.ar    1  UNL1        0.1122
      5 N         140.3716  140.4178  162.3804 N.ar    1  UNL1       -0.2259
      6 C         139.7794  141.7725  164.6073 C.3     1  UNL1        0.1549
      7 C         140.3255  140.4063  164.8988 C.3     1  UNL1        0.1705
      8 O         141.0795  140.1557  166.1710 O.3     1  UNL1       -0.3538
      9 C         141.2873  141.2714  167.1518 C.3     1  UNL1        0.1155
     10 C         142.0413  141.0208  168.4242 C.3     1  UNL1        0.0320
     11 C         140.7412  142.6377  166.8604 C.3     1  UNL1        0.0328
     12 C         139.9872  142.8882  165.5881 C.3     1  UNL1        0.0426
     13 C         139.4410  144.2546  165.2966 C.3     1  UNL1        0.0673
     14 S         138.6871  144.5052  164.0244 S.3     1  UNL1       -0.0807
     15 C         138.4792  143.3894  163.0436 C.2     1  UNL1        0.1483
     16 N         137.7252  143.6401  161.7713 N.pl3   1  UNL1       -0.3380
     17 N         139.0253  142.0232  163.3350 N.2     1  UNL1       -0.2464
     18 H         137.3667  144.5368  161.5800 H       1  UNL1        0.1442
     19 H         137.5887  142.9078  161.1275 H       1  UNL1        0.1442
     20 C         139.5581  138.8003  159.1494 C.2     1  UNL1        0.2683
     21 O         138.2909  139.6028  159.1553 O.2     1  UNL1       -0.2681
     22 N         140.3235  138.5977  160.4234 N.am    1  UNL1       -0.2641
     23 H         141.1552  138.0710  160.4195 H       1  UNL1        0.1566
     24 C         141.0640  137.0007  155.3096 C.ar    1  UNL1        0.1578
     25 C         142.0119  137.2435  156.4465 C.ar    1  UNL1        0.0402
     26 C         141.5099  137.8433  157.7265 C.ar    1  UNL1        0.0269
     27 C         140.0600  138.2005  157.8695 C.ar    1  UNL1        0.1350
     28 N         139.1121  137.9577  156.7326 N.ar    1  UNL1       -0.2361
     29 C         139.6142  137.3578  155.4526 C.ar    1  UNL1        0.1357
     30 C         142.5678  135.2852  154.0666 C.3     1  UNL1        0.2525
     31 O         141.5660  136.4009  154.0298 O.3     1  UNL1       -0.4699
@<TRIPOS>BOND
     1    30    31    1
     2    31    24    1
     3    24    25   ar
     4    25    26   ar
     5    26    27   ar
     6    27    20    1
     7    20    21    2
     8    20    22   am
     9    22     1    1
    10     1     2   ar
    11     2     3   ar
    12     3     4   ar
    13     6     4    1
    14     6     7    1
    15     7     8    1
    16     8     9    1
    17     9    10    1
    18     9    11    1
    19    12    11    1
    20    12    13    1
    21    13    14    1
    22    14    15    1
    23    15    16    1
    24    15    17    2
    25     4     5   ar
    26    27    28   ar
    27    28    29   ar
    28    29    24   ar
    29     5     1   ar
    30    12     6    1
    31    17     6    1
    32    22    23    1
    33    16    18    1
    34    16    19    1
@<TRIPOS>MOLECULE
*****
 31 34 0 0 0
SMALL
GASTEIGER

@<TRIPOS>ATOM
      1 C         143.9485  142.6715  161.7878 C.ar    1  UNL1        0.1412
      2 C         144.2406  143.4046  163.0634 C.ar    1  UNL1        0.0710
      3 S         142.9956  143.3933  163.9001 S.2     1  UNL1       -0.0670
      4 C         141.9341  142.6532  163.1415 C.ar    1  UNL1        0.1122
      5 N         142.5230  142.2071  161.8360 N.ar    1  UNL1       -0.2259
      6 C         140.5302  142.4031  163.6067 C.3     1  UNL1        0.1549
      7 C         141.5543  141.3104  163.6916 C.3     1  UNL1        0.1705
      8 O         141.1744  139.9676  164.2417 O.3     1  UNL1       -0.3538
      9 C         139.7705  139.7175  164.7069 C.3     1  UNL1        0.1155
     10 C         139.3907  138.3746  165.2570 C.3     1  UNL1        0.0320
     11 C         138.7464  140.8102  164.6220 C.3     1  UNL1        0.0328
     12 C         139.1262  142.1529  164.0719 C.3     1  UNL1        0.0426
     13 C         138.1021  143.2457  163.9870 C.3     1  UNL1        0.0673
     14 S         138.4819  144.5885  163.4369 S.3     1  UNL1       -0.0807
     15 C         139.8859  144.8386  162.9717 C.2     1  UNL1        0.1483
     16 N         140.2657  146.1815  162.4216 N.pl3   1  UNL1       -0.3380
     17 N         140.9100  143.7459  163.0566 N.2     1  UNL1       -0.2464
     18 H         139.5935  146.8986  162.3659 H       1  UNL1        0.1442
     19 H         141.1871  146.3456  162.1163 H       1  UNL1        0.1442
     20 C         144.4657  142.6298  159.2421 C.2     1  UNL1        0.2683
     21 O         143.0546  143.0451  158.9486 O.2     1  UNL1       -0.2681
     22 N         144.9126  142.4430  160.6617 N.am    1  UNL1       -0.2641
     23 H         145.8388  142.1704  160.8543 H       1  UNL1        0.1566
     24 C         147.3584  141.9442  155.8638 C.ar    1  UNL1        0.1578
     25 C         147.7279  142.8591  156.9936 C.ar    1  UNL1        0.0402
     26 C         146.7637  143.0876  158.1197 C.ar    1  UNL1        0.0269
     27 C         145.4299  142.4013  158.1160 C.ar    1  UNL1        0.1350
     28 N         145.0603  141.4864  156.9862 N.ar    1  UNL1       -0.2361
     29 C         146.0246  141.2578  155.8601 C.ar    1  UNL1        0.1357
     30 C         149.7683  141.4444  155.0317 C.3     1  UNL1        0.2525
     31 O         148.3226  141.7157  154.7378 O.3     1  UNL1       -0.4699
@<TRIPOS>BOND
     1    30    31    1
     2    31    24    1
     3    24    25   ar
     4    25    26   ar
     5    26    27   ar
     6    27    20    1
     7    20    21    2
     8    20    22   am
     9    22     1    1
    10     1     2   ar
    11     2     3   ar
    12     3     4   ar
    13     6     4    1
    14     6     7    1
    15     7     8    1
    16     8     9    1
    17     9    10    1
    18     9    11    1
    19    12    11    1
    20    12    13    1
    21    13    14    1
    22    14    15    1
    23    15    16    1
    24    15    17    2
    25     4     5   ar
    26    27    28   ar
    27    28    29   ar
    28    29    24   ar
    29     5     1   ar
    30    12     6    1
    31    17     6    1
    32    22    23    1
    33    16    18    1
    34    16    19    1
