@<TRIPOS>MOLECULE
*****
 43 46 0 0 0
SMALL
GASTEIGER

@<TRIPOS>ATOM
      1 C         142.2656  144.2133  161.5362 C.3     1  UNL1        0.0781
      2 C         143.0070  144.6659  162.7591 C.3     1  UNL1        0.0372
      3 C         144.1321  143.8368  163.3038 C.3     1  UNL1        0.0738
      4 N         144.5157  142.5550  162.6257 N.3     1  UNL1       -0.2726
      5 C         143.7743  142.1024  161.4028 C.3     1  UNL1        0.0738
      6 C         142.6492  142.9315  160.8580 C.3     1  UNL1        0.0372
      7 N         141.1405  145.0424  160.9915 N.am    1  UNL1       -0.2808
      8 C         140.1082  145.6090  161.9208 C.2     1  UNL1        0.2300
      9 O         138.9831  146.4381  161.3760 O.2     1  UNL1       -0.2745
     10 C         140.1057  144.5015  158.6706 C.3     1  UNL1        0.0233
     11 C         141.0476  145.3049  159.5176 C.3     1  UNL1        0.0934
     12 C         140.2010  145.3465  163.3947 C.3     1  UNL1        0.1116
     13 C         139.7733  144.0197  163.9486 C.ar    1  UNL1       -0.0130
     14 C         138.8496  143.1401  163.1594 C.ar    1  UNL1       -0.0025
     15 C         138.4219  141.8134  163.7133 C.ar    1  UNL1        0.0180
     16 C         138.9179  141.3663  165.0565 C.ar    1  UNL1        0.1057
     17 C         139.8417  142.2459  165.8457 C.ar    1  UNL1        0.0180
     18 C         140.2694  143.5726  165.2917 C.ar    1  UNL1       -0.0025
     19 S         138.4902  140.0395  165.6104 S.O2    1  UNL1        0.0104
     20 C         138.0625  138.7128  166.1643 C.3     1  UNL1        0.1816
     21 O         137.7746  139.7348  164.3279 O.2     1  UNL1       -0.1686
     22 O         139.2058  140.3442  166.8930 O.2     1  UNL1       -0.1686
     23 C         145.6408  141.7259  163.1704 C.3     1  UNL1        0.0724
     24 C         145.3527  140.4056  163.8213 C.3     1  UNL1        0.0217
     25 C         143.9492  140.0557  164.2185 C.3     1  UNL1        0.0239
     26 C         143.0016  139.4890  163.2032 C.ar    1  UNL1       -0.0194
     27 C         141.5343  139.7855  163.2991 C.ar    1  UNL1       -0.0041
     28 C         140.5867  139.2187  162.2837 C.ar    1  UNL1        0.0028
     29 C         141.1064  138.3554  161.1726 C.ar    1  UNL1        0.0369
     30 C         142.5737  138.0588  161.0768 C.ar    1  UNL1        0.1384
     31 C         143.5213  138.6256  162.0921 C.ar    1  UNL1        0.0326
     32 O         143.0934  137.1955  159.9656 O.3     1  UNL1       -0.4714
     33 C         142.7237  137.4994  158.5441 C.3     1  UNL1        0.2525
     34 C         143.4932  140.2726  165.6310 C.3     1  UNL1        0.0070
     35 C         143.1358  139.0977  166.4925 C.3     1  UNL1        0.0195
     36 C         142.6799  139.3146  167.9049 C.3     1  UNL1        0.0954
     37 N         142.5814  140.7062  168.4559 N.3     1  UNL1       -0.1594
     38 C         142.9387  141.8810  167.5945 C.3     1  UNL1        0.0954
     39 C         143.3947  141.6642  166.1820 C.3     1  UNL1        0.0195
     40 S         142.1255  140.9231  169.8684 S.O2    1  UNL1        0.0457
     41 C         141.6695  141.1399  171.2809 C.3     1  UNL1        0.1960
     42 O         141.0609  141.8606  169.3808 O.2     1  UNL1       -0.1572
     43 O         143.1900  139.9856  170.3559 O.2     1  UNL1       -0.1572
@<TRIPOS>BOND
     1    10    11    1
     2    11     7    1
     3     7     8   am
     4     8     9    2
     5     8    12    1
     6    12    13    1
     7    13    14   ar
     8    14    15   ar
     9    15    16   ar
    10    16    19    1
    11    19    20    1
    12    19    21    2
    13    19    22    2
    14    16    17   ar
    15    17    18   ar
    16     7     1    1
    17     1     2    1
    18     2     3    1
    19     3     4    1
    20     4    23    1
    21    23    24    1
    22    25    24    1
    23    25    26    1
    24    26    27   ar
    25    27    28   ar
    26    28    29   ar
    27    29    30   ar
    28    30    32    1
    29    32    33    1
    30    30    31   ar
    31    25    34    1
    32    34    35    1
    33    35    36    1
    34    36    37    1
    35    37    40    1
    36    40    41    1
    37    40    42    2
    38    40    43    2
    39    37    38    1
    40    38    39    1
    41     4     5    1
    42     5     6    1
    43    18    13   ar
    44     6     1    1
    45    31    26   ar
    46    39    34    1
@<TRIPOS>MOLECULE
*****
 43 46 0 0 0
SMALL
GASTEIGER

@<TRIPOS>ATOM
      1 C         142.7369  139.1300  159.7730 C.3     1  UNL1        0.0781
      2 C         143.2142  140.4941  159.3714 C.3     1  UNL1        0.0372
      3 C         144.0371  141.3110  160.3230 C.3     1  UNL1        0.0738
      4 N         144.3827  140.7638  161.6762 N.3     1  UNL1       -0.2726
      5 C         143.9053  139.3996  162.0778 C.3     1  UNL1        0.0738
      6 C         143.0824  138.5827  161.1262 C.3     1  UNL1        0.0372
      7 N         141.9140  138.3132  158.8214 N.am    1  UNL1       -0.2808
      8 C         140.4537  138.6093  158.6477 C.2     1  UNL1        0.2300
      9 O         139.6308  137.7924  157.6961 O.2     1  UNL1       -0.2745
     10 C         142.9235  137.4078  156.6054 C.3     1  UNL1        0.0233
     11 C         142.5512  137.2002  158.0435 C.3     1  UNL1        0.0934
     12 C         139.8165  139.7223  159.4255 C.3     1  UNL1        0.1116
     13 C         139.4901  139.5317  160.8772 C.ar    1  UNL1       -0.0130
     14 C         139.1448  138.1671  161.3954 C.ar    1  UNL1       -0.0025
     15 C         138.8185  137.9765  162.8470 C.ar    1  UNL1        0.0180
     16 C         138.8375  139.1506  163.7804 C.ar    1  UNL1        0.1057
     17 C         139.1828  140.5152  163.2622 C.ar    1  UNL1        0.0180
     18 C         139.5091  140.7057  161.8106 C.ar    1  UNL1       -0.0025
     19 S         138.5111  138.9600  165.2320 S.O2    1  UNL1        0.0104
     20 C         138.1848  138.7694  166.6836 C.3     1  UNL1        0.1816
     21 O         138.2215  140.4262  165.3594 O.2     1  UNL1       -0.1686
     22 O         138.8008  137.4938  165.1047 O.2     1  UNL1       -0.1686
     23 C         145.2056  141.5807  162.6277 C.3     1  UNL1        0.0724
     24 C         144.6501  142.8512  163.1997 C.3     1  UNL1        0.0217
     25 C         143.2869  142.8590  163.8254 C.3     1  UNL1        0.0239
     26 C         142.1685  143.6200  163.1773 C.ar    1  UNL1       -0.0194
     27 C         142.3344  144.1581  161.7870 C.ar    1  UNL1       -0.0041
     28 C         141.2160  144.9191  161.1388 C.ar    1  UNL1        0.0028
     29 C         139.9317  145.1420  161.8810 C.ar    1  UNL1        0.0369
     30 C         139.7658  144.6039  163.2713 C.ar    1  UNL1        0.1384
     31 C         140.8841  143.8429  163.9194 C.ar    1  UNL1        0.0326
     32 O         138.4814  144.8269  164.0135 O.3     1  UNL1       -0.4714
     33 C         138.4886  144.9339  165.5096 C.3     1  UNL1        0.2525
     34 C         143.0420  142.1058  165.0992 C.3     1  UNL1        0.0070
     35 C         142.4083  140.7468  165.0570 C.3     1  UNL1        0.0195
     36 C         142.1634  139.9937  166.3308 C.3     1  UNL1        0.0954
     37 N         142.5522  140.5993  167.6469 N.3     1  UNL1       -0.1594
     38 C         143.1859  141.9582  167.6891 C.3     1  UNL1        0.0954
     39 C         143.4308  142.7115  166.4152 C.3     1  UNL1        0.0195
     40 S         142.3073  139.8461  168.9207 S.O2    1  UNL1        0.0457
     41 C         142.0625  139.0929  170.1946 C.3     1  UNL1        0.1960
     42 O         141.4023  140.9439  169.3958 O.2     1  UNL1       -0.1572
     43 O         143.2124  138.7484  168.4456 O.2     1  UNL1       -0.1572
@<TRIPOS>BOND
     1    10    11    1
     2    11     7    1
     3     7     8   am
     4     8     9    2
     5     8    12    1
     6    12    13    1
     7    13    14   ar
     8    14    15   ar
     9    15    16   ar
    10    16    19    1
    11    19    20    1
    12    19    21    2
    13    19    22    2
    14    16    17   ar
    15    17    18   ar
    16     7     1    1
    17     1     2    1
    18     2     3    1
    19     3     4    1
    20     4    23    1
    21    23    24    1
    22    25    24    1
    23    25    26    1
    24    26    27   ar
    25    27    28   ar
    26    28    29   ar
    27    29    30   ar
    28    30    32    1
    29    32    33    1
    30    30    31   ar
    31    25    34    1
    32    34    35    1
    33    35    36    1
    34    36    37    1
    35    37    40    1
    36    40    41    1
    37    40    42    2
    38    40    43    2
    39    37    38    1
    40    38    39    1
    41     4     5    1
    42     5     6    1
    43    18    13   ar
    44     6     1    1
    45    31    26   ar
    46    39    34    1
@<TRIPOS>MOLECULE
*****
 43 46 0 0 0
SMALL
GASTEIGER

@<TRIPOS>ATOM
      1 C         140.8296  138.2913  160.8168 C.3     1  UNL1        0.0781
      2 C         141.4719  137.5665  161.9622 C.3     1  UNL1        0.0372
      3 C         140.7352  137.4119  163.2596 C.3     1  UNL1        0.0738
      4 N         139.3562  137.9821  163.4117 N.3     1  UNL1       -0.2726
      5 C         138.7139  138.7071  162.2662 C.3     1  UNL1        0.0738
      6 C         139.4506  138.8617  160.9688 C.3     1  UNL1        0.0372
      7 N         141.5663  138.4459  159.5193 N.am    1  UNL1       -0.2808
      8 C         143.0456  138.6950  159.5218 C.2     1  UNL1        0.2300
      9 O         143.7823  138.8496  158.2244 O.2     1  UNL1       -0.2745
     10 C         140.4574  139.5997  157.4727 C.3     1  UNL1        0.0233
     11 C         140.8239  138.3515  158.2194 C.3     1  UNL1        0.0934
     12 C         143.7880  138.7894  160.8218 C.3     1  UNL1        0.1116
     13 C         143.8397  140.0924  161.5631 C.ar    1  UNL1       -0.0130
     14 C         143.7513  141.3872  160.8110 C.ar    1  UNL1       -0.0025
     15 C         143.8030  142.6902  161.5523 C.ar    1  UNL1        0.0180
     16 C         143.9430  142.6983  163.0457 C.ar    1  UNL1        0.1057
     17 C         144.0313  141.4036  163.7978 C.ar    1  UNL1        0.0180
     18 C         143.9797  140.1006  163.0565 C.ar    1  UNL1       -0.0025
     19 S         143.9946  144.0014  163.7871 S.O2    1  UNL1        0.0104
     20 C         144.0463  145.3044  164.5283 C.3     1  UNL1        0.1816
     21 O         144.3157  144.7162  162.5081 O.2     1  UNL1       -0.1686
     22 O         143.6735  143.2865  165.0660 O.2     1  UNL1       -0.1686
     23 C         138.6195  137.8275  164.7091 C.3     1  UNL1        0.0724
     24 C         138.3506  139.0285  165.5666 C.3     1  UNL1        0.0217
     25 C         139.4192  140.0620  165.7663 C.3     1  UNL1        0.0239
     26 C         140.4768  139.8553  166.8098 C.ar    1  UNL1       -0.0194
     27 C         141.8294  139.3407  166.4152 C.ar    1  UNL1       -0.0041
     28 C         142.8869  139.1340  167.4587 C.ar    1  UNL1        0.0028
     29 C         142.5919  139.4419  168.8968 C.ar    1  UNL1        0.0369
     30 C         141.2393  139.9564  169.2914 C.ar    1  UNL1        0.1384
     31 C         140.1818  140.1631  168.2480 C.ar    1  UNL1        0.0326
     32 O         140.9443  140.2643  170.7296 O.3     1  UNL1       -0.4714
     33 C         141.2859  141.6116  171.2935 C.3     1  UNL1        0.2525
     34 C         139.4304  141.3021  164.9227 C.3     1  UNL1        0.0070
     35 C         138.4558  142.4078  165.2017 C.3     1  UNL1        0.0195
     36 C         138.4670  143.6480  164.3580 C.3     1  UNL1        0.0954
     37 N         139.4526  143.7825  163.2353 N.3     1  UNL1       -0.1594
     38 C         140.4271  142.6769  162.9563 C.3     1  UNL1        0.0954
     39 C         140.4160  141.4366  163.8000 C.3     1  UNL1        0.0195
     40 S         139.4637  145.0227  162.3916 S.O2    1  UNL1        0.0457
     41 C         139.4748  146.2629  161.5479 C.3     1  UNL1        0.1960
     42 O         140.9621  145.0523  162.4549 O.2     1  UNL1       -0.1572
     43 O         137.9654  144.9931  162.3283 O.2     1  UNL1       -0.1572
@<TRIPOS>BOND
     1    10    11    1
     2    11     7    1
     3     7     8   am
     4     8     9    2
     5     8    12    1
     6    12    13    1
     7    13    14   ar
     8    14    15   ar
     9    15    16   ar
    10    16    19    1
    11    19    20    1
    12    19    21    2
    13    19    22    2
    14    16    17   ar
    15    17    18   ar
    16     7     1    1
    17     1     2    1
    18     2     3    1
    19     3     4    1
    20     4    23    1
    21    23    24    1
    22    25    24    1
    23    25    26    1
    24    26    27   ar
    25    27    28   ar
    26    28    29   ar
    27    29    30   ar
    28    30    32    1
    29    32    33    1
    30    30    31   ar
    31    25    34    1
    32    34    35    1
    33    35    36    1
    34    36    37    1
    35    37    40    1
    36    40    41    1
    37    40    42    2
    38    40    43    2
    39    37    38    1
    40    38    39    1
    41     4     5    1
    42     5     6    1
    43    18    13   ar
    44     6     1    1
    45    31    26   ar
    46    39    34    1
@<TRIPOS>MOLECULE
*****
 43 46 0 0 0
SMALL
GASTEIGER

@<TRIPOS>ATOM
      1 C         142.7604  139.2048  159.7975 C.3     1  UNL1        0.0781
      2 C         143.2096  140.5824  159.4098 C.3     1  UNL1        0.0372
      3 C         144.0406  141.3949  160.3580 C.3     1  UNL1        0.0738
      4 N         144.4224  140.8298  161.6940 N.3     1  UNL1       -0.2726
      5 C         143.9732  139.4521  162.0817 C.3     1  UNL1        0.0738
      6 C         143.1422  138.6396  161.1335 C.3     1  UNL1        0.0372
      7 N         141.9294  138.3922  158.8492 N.am    1  UNL1       -0.2808
      8 C         140.4676  138.6887  158.6898 C.2     1  UNL1        0.2300
      9 O         139.6366  137.8762  157.7415 O.2     1  UNL1       -0.2745
     10 C         142.9341  137.5030  156.6245 C.3     1  UNL1        0.0233
     11 C         142.5601  137.2832  158.0603 C.3     1  UNL1        0.0934
     12 C         139.8369  139.7977  159.4786 C.3     1  UNL1        0.1116
     13 C         139.5001  139.5913  160.9258 C.ar    1  UNL1       -0.0130
     14 C         139.0585  138.2413  161.4079 C.ar    1  UNL1       -0.0025
     15 C         138.7218  138.0350  162.8549 C.ar    1  UNL1        0.0180
     16 C         138.8267  139.1786  163.8198 C.ar    1  UNL1        0.1057
     17 C         139.2683  140.5286  163.3377 C.ar    1  UNL1        0.0180
     18 C         139.6050  140.7349  161.8907 C.ar    1  UNL1       -0.0025
     19 S         138.4899  138.9722  165.2670 S.O2    1  UNL1        0.0104
     20 C         138.1532  138.7658  166.7140 C.3     1  UNL1        0.1816
     21 O         138.1677  140.4311  165.4000 O.2     1  UNL1       -0.1686
     22 O         138.8121  137.5133  165.1339 O.2     1  UNL1       -0.1686
     23 C         145.2534  141.6424  162.6422 C.3     1  UNL1        0.0724
     24 C         144.7121  142.9226  163.2061 C.3     1  UNL1        0.0217
     25 C         143.3532  142.9472  163.8407 C.3     1  UNL1        0.0239
     26 C         142.2442  143.7346  163.2082 C.ar    1  UNL1       -0.0194
     27 C         141.0099  144.0583  163.9966 C.ar    1  UNL1       -0.0041
     28 C         139.9009  144.8457  163.3640 C.ar    1  UNL1        0.0028
     29 C         140.0262  145.3093  161.9430 C.ar    1  UNL1        0.0369
     30 C         141.2605  144.9856  161.1545 C.ar    1  UNL1        0.1384
     31 C         142.3695  144.1982  161.7871 C.ar    1  UNL1        0.0326
     32 O         141.3857  145.4492  159.7334 O.3     1  UNL1       -0.4714
     33 C         141.9105  144.5155  158.6834 C.3     1  UNL1        0.2525
     34 C         143.1033  142.1845  165.1079 C.3     1  UNL1        0.0070
     35 C         142.5178  140.8047  165.0497 C.3     1  UNL1        0.0195
     36 C         142.2679  140.0420  166.3169 C.3     1  UNL1        0.0954
     37 N         142.6034  140.6590  167.6423 N.3     1  UNL1       -0.1594
     38 C         143.1889  142.0388  167.7005 C.3     1  UNL1        0.0954
     39 C         143.4389  142.8016  166.4332 C.3     1  UNL1        0.0195
     40 S         142.3535  139.8963  168.9094 S.O2    1  UNL1        0.0457
     41 C         142.1036  139.1336  170.1767 C.3     1  UNL1        0.1960
     42 O         143.1378  138.7384  168.3672 O.2     1  UNL1       -0.1572
     43 O         141.5692  141.0542  169.4517 O.2     1  UNL1       -0.1572
@<TRIPOS>BOND
     1    10    11    1
     2    11     7    1
     3     7     8   am
     4     8     9    2
     5     8    12    1
     6    12    13    1
     7    13    14   ar
     8    14    15   ar
     9    15    16   ar
    10    16    19    1
    11    19    20    1
    12    19    21    2
    13    19    22    2
    14    16    17   ar
    15    17    18   ar
    16     7     1    1
    17     1     2    1
    18     2     3    1
    19     3     4    1
    20     4    23    1
    21    23    24    1
    22    25    24    1
    23    25    26    1
    24    26    27   ar
    25    27    28   ar
    26    28    29   ar
    27    29    30   ar
    28    30    32    1
    29    32    33    1
    30    30    31   ar
    31    25    34    1
    32    34    35    1
    33    35    36    1
    34    36    37    1
    35    37    40    1
    36    40    41    1
    37    40    42    2
    38    40    43    2
    39    37    38    1
    40    38    39    1
    41     4     5    1
    42     5     6    1
    43    18    13   ar
    44     6     1    1
    45    31    26   ar
    46    39    34    1
@<TRIPOS>MOLECULE
*****
 43 46 0 0 0
SMALL
GASTEIGER

@<TRIPOS>ATOM
      1 C         142.6308  140.7344  166.9722 C.3     1  UNL1        0.0781
      2 C         142.9753  139.3267  166.5854 C.3     1  UNL1        0.0372
      3 C         143.7136  139.0594  165.3074 C.3     1  UNL1        0.0738
      4 N         144.1074  140.1998  164.4161 N.3     1  UNL1       -0.2726
      5 C         143.7629  141.6076  164.8029 C.3     1  UNL1        0.0738
      6 C         143.0246  141.8749  166.0809 C.3     1  UNL1        0.0372
      7 N         141.8924  141.0017  168.2503 N.am    1  UNL1       -0.2808
      8 C         140.3934  141.0583  168.2527 C.2     1  UNL1        0.2300
      9 O         139.6551  141.3256  169.5308 O.2     1  UNL1       -0.2745
     10 C         142.9125  140.0551  170.4442 C.3     1  UNL1        0.0233
     11 C         142.6530  141.2124  169.5258 C.3     1  UNL1        0.0934
     12 C         139.6329  140.8476  166.9771 C.3     1  UNL1        0.1116
     13 C         139.6269  141.9143  165.9225 C.ar    1  UNL1       -0.0130
     14 C         139.6502  143.3608  166.3188 C.ar    1  UNL1       -0.0025
     15 C         139.6442  144.4275  165.2642 C.ar    1  UNL1        0.0180
     16 C         139.6149  144.0476  163.8134 C.ar    1  UNL1        0.1057
     17 C         139.5915  142.6011  163.4171 C.ar    1  UNL1        0.0180
     18 C         139.5975  141.5345  164.4717 C.ar    1  UNL1       -0.0025
     19 S         139.6089  145.1143  162.7588 S.O2    1  UNL1        0.0104
     20 C         139.6029  146.1810  161.7042 C.3     1  UNL1        0.1816
     21 O         141.0421  145.4295  163.0694 O.2     1  UNL1       -0.1686
     22 O         138.1757  144.7992  162.4481 O.2     1  UNL1       -0.1686
     23 C         144.8458  139.9325  163.1381 C.3     1  UNL1        0.0724
     24 C         144.1364  139.2922  161.9819 C.3     1  UNL1        0.0217
     25 C         142.7765  139.7771  161.5747 C.3     1  UNL1        0.0239
     26 C         141.5498  139.0577  162.0516 C.ar    1  UNL1       -0.0194
     27 C         141.6719  137.9558  163.0621 C.ar    1  UNL1       -0.0041
     28 C         140.4451  137.2363  163.5390 C.ar    1  UNL1        0.0028
     29 C         139.0964  137.6187  163.0055 C.ar    1  UNL1        0.0369
     30 C         138.9743  138.7205  161.9950 C.ar    1  UNL1        0.1384
     31 C         140.2010  139.4400  161.5181 C.ar    1  UNL1        0.0326
     32 O         137.6255  139.1029  161.4615 O.3     1  UNL1       -0.4714
     33 C         137.5196  139.9772  160.2473 C.3     1  UNL1        0.2525
     34 C         142.6434  140.9815  160.6906 C.3     1  UNL1        0.0070
     35 C         142.5324  142.3488  161.2975 C.3     1  UNL1        0.0195
     36 C         142.3993  143.5532  160.4134 C.3     1  UNL1        0.0954
     37 N         142.3772  143.3904  158.9224 N.3     1  UNL1       -0.1594
     38 C         142.4882  142.0232  158.3155 C.3     1  UNL1        0.0954
     39 C         142.6214  140.8187  159.1996 C.3     1  UNL1        0.0195
     40 S         142.2441  144.5948  158.0383 S.O2    1  UNL1        0.0457
     41 C         142.1110  145.7992  157.1541 C.3     1  UNL1        0.1960
     42 O         141.9138  145.4367  159.2350 O.2     1  UNL1       -0.1572
     43 O         142.5743  143.7529  156.8416 O.2     1  UNL1       -0.1572
@<TRIPOS>BOND
     1    10    11    1
     2    11     7    1
     3     7     8   am
     4     8     9    2
     5     8    12    1
     6    12    13    1
     7    13    14   ar
     8    14    15   ar
     9    15    16   ar
    10    16    19    1
    11    19    20    1
    12    19    21    2
    13    19    22    2
    14    16    17   ar
    15    17    18   ar
    16     7     1    1
    17     1     2    1
    18     2     3    1
    19     3     4    1
    20     4    23    1
    21    23    24    1
    22    25    24    1
    23    25    26    1
    24    26    27   ar
    25    27    28   ar
    26    28    29   ar
    27    29    30   ar
    28    30    32    1
    29    32    33    1
    30    30    31   ar
    31    25    34    1
    32    34    35    1
    33    35    36    1
    34    36    37    1
    35    37    40    1
    36    40    41    1
    37    40    42    2
    38    40    43    2
    39    37    38    1
    40    38    39    1
    41     4     5    1
    42     5     6    1
    43    18    13   ar
    44     6     1    1
    45    31    26   ar
    46    39    34    1
@<TRIPOS>MOLECULE
*****
 43 46 0 0 0
SMALL
GASTEIGER

@<TRIPOS>ATOM
      1 C         141.9775  138.5489  159.9837 C.3     1  UNL1        0.0781
      2 C         140.5079  138.8491  159.9936 C.3     1  UNL1        0.0372
      3 C         139.6927  138.5656  161.2204 C.3     1  UNL1        0.0738
      4 N         140.3471  137.9819  162.4374 N.3     1  UNL1       -0.2726
      5 C         141.8168  137.6816  162.4275 C.3     1  UNL1        0.0738
      6 C         142.6320  137.9651  161.2007 C.3     1  UNL1        0.0372
      7 N         142.7927  138.8323  158.7569 N.am    1  UNL1       -0.2808
      8 C         143.8253  139.9202  158.7774 C.2     1  UNL1        0.2300
      9 O         144.6405  140.2037  157.5506 O.2     1  UNL1       -0.2745
     10 C         142.7613  136.5399  157.5349 C.3     1  UNL1        0.0233
     11 C         142.5753  138.0280  157.5096 C.3     1  UNL1        0.0934
     12 C         144.0427  140.7245  160.0247 C.3     1  UNL1        0.1116
     13 C         143.1484  141.8891  160.3315 C.ar    1  UNL1       -0.0130
     14 C         142.9656  142.9813  159.3198 C.ar    1  UNL1       -0.0025
     15 C         142.0714  144.1458  159.6267 C.ar    1  UNL1        0.0180
     16 C         141.3600  144.2182  160.9453 C.ar    1  UNL1        0.1057
     17 C         141.5429  143.1260  161.9570 C.ar    1  UNL1        0.0180
     18 C         142.4371  141.9614  161.6501 C.ar    1  UNL1       -0.0025
     19 S         140.4658  145.3828  161.2521 S.O2    1  UNL1        0.0104
     20 C         139.5715  146.5473  161.5589 C.3     1  UNL1        0.1816
     21 O         139.8794  145.2955  159.8743 O.2     1  UNL1       -0.1686
     22 O         141.0521  145.4700  162.6300 O.2     1  UNL1       -0.1686
     23 C         139.5319  137.6984  163.6642 C.3     1  UNL1        0.0724
     24 C         138.5153  138.6953  164.1360 C.3     1  UNL1        0.0217
     25 C         138.9621  139.9832  164.7619 C.3     1  UNL1        0.0239
     26 C         138.5403  141.2931  164.1651 C.ar    1  UNL1       -0.0194
     27 C         138.3422  142.4901  165.0471 C.ar    1  UNL1       -0.0041
     28 C         137.9204  143.8000  164.4502 C.ar    1  UNL1        0.0028
     29 C         137.6968  143.9129  162.9713 C.ar    1  UNL1        0.0369
     30 C         137.8949  142.7160  162.0893 C.ar    1  UNL1        0.1384
     31 C         138.3167  141.4061  162.6861 C.ar    1  UNL1        0.0326
     32 O         137.6712  142.8289  160.6103 O.3     1  UNL1       -0.4714
     33 C         138.5240  142.0412  159.6605 C.3     1  UNL1        0.2525
     34 C         139.8306  139.9612  165.9847 C.3     1  UNL1        0.0070
     35 C         139.2063  139.8970  167.3471 C.3     1  UNL1        0.0195
     36 C         140.0748  139.8750  168.5698 C.3     1  UNL1        0.0954
     37 N         141.5677  139.9172  168.4302 N.3     1  UNL1       -0.1594
     38 C         142.1921  139.9814  167.0679 C.3     1  UNL1        0.0954
     39 C         141.3235  140.0034  165.8450 C.3     1  UNL1        0.0195
     40 S         142.4363  139.8953  169.6529 S.O2    1  UNL1        0.0457
     41 C         143.3049  139.8732  170.8757 C.3     1  UNL1        0.1960
     42 O         141.8849  141.2268  170.0685 O.2     1  UNL1       -0.1572
     43 O         142.9877  138.5637  169.2373 O.2     1  UNL1       -0.1572
@<TRIPOS>BOND
     1    10    11    1
     2    11     7    1
     3     7     8   am
     4     8     9    2
     5     8    12    1
     6    12    13    1
     7    13    14   ar
     8    14    15   ar
     9    15    16   ar
    10    16    19    1
    11    19    20    1
    12    19    21    2
    13    19    22    2
    14    16    17   ar
    15    17    18   ar
    16     7     1    1
    17     1     2    1
    18     2     3    1
    19     3     4    1
    20     4    23    1
    21    23    24    1
    22    25    24    1
    23    25    26    1
    24    26    27   ar
    25    27    28   ar
    26    28    29   ar
    27    29    30   ar
    28    30    32    1
    29    32    33    1
    30    30    31   ar
    31    25    34    1
    32    34    35    1
    33    35    36    1
    34    36    37    1
    35    37    40    1
    36    40    41    1
    37    40    42    2
    38    40    43    2
    39    37    38    1
    40    38    39    1
    41     4     5    1
    42     5     6    1
    43    18    13   ar
    44     6     1    1
    45    31    26   ar
    46    39    34    1
@<TRIPOS>MOLECULE
*****
 43 46 0 0 0
SMALL
GASTEIGER

@<TRIPOS>ATOM
      1 C         142.5844  140.3304  167.1587 C.3     1  UNL1        0.0781
      2 C         143.0266  139.2966  166.1660 C.3     1  UNL1        0.0372
      3 C         143.8312  139.7036  164.9673 C.3     1  UNL1        0.0738
      4 N         144.1937  141.1445  164.7614 N.3     1  UNL1       -0.2726
      5 C         143.7515  142.1784  165.7542 C.3     1  UNL1        0.0738
      6 C         142.9469  141.7714  166.9528 C.3     1  UNL1        0.0372
      7 N         141.7797  139.9234  168.3574 N.am    1  UNL1       -0.2808
      8 C         140.3310  140.3009  168.4516 C.2     1  UNL1        0.2300
      9 O         139.5263  139.8938  169.6503 O.2     1  UNL1       -0.2745
     10 C         142.9981  139.8505  170.6508 C.3     1  UNL1        0.0233
     11 C         142.4237  139.1390  169.4619 C.3     1  UNL1        0.0934
     12 C         139.6870  141.0853  167.3471 C.3     1  UNL1        0.1116
     13 C         139.5471  140.4814  165.9811 C.ar    1  UNL1       -0.0130
     14 C         139.9865  141.2522  164.7717 C.ar    1  UNL1       -0.0025
     15 C         139.8465  140.6482  163.4059 C.ar    1  UNL1        0.0180
     16 C         139.2672  139.2735  163.2494 C.ar    1  UNL1        0.1057
     17 C         138.8278  138.5027  164.4588 C.ar    1  UNL1        0.0180
     18 C         138.9677  139.1066  165.8247 C.ar    1  UNL1       -0.0025
     19 S         139.1272  138.6696  161.8835 S.O2    1  UNL1        0.0104
     20 C         138.9873  138.0656  160.5176 C.3     1  UNL1        0.1816
     21 O         140.2942  137.7693  162.1620 O.2     1  UNL1       -0.1686
     22 O         137.9602  139.5698  161.6050 O.2     1  UNL1       -0.1686
     23 C         144.9984  141.5515  163.5627 C.3     1  UNL1        0.0724
     24 C         144.6101  142.7687  162.7768 C.3     1  UNL1        0.0217
     25 C         143.4104  142.7293  161.8772 C.3     1  UNL1        0.0239
     26 C         142.2948  143.7131  162.0714 C.ar    1  UNL1       -0.0194
     27 C         141.8921  144.1268  163.4558 C.ar    1  UNL1       -0.0041
     28 C         140.7765  145.1106  163.6499 C.ar    1  UNL1        0.0028
     29 C         140.0636  145.6806  162.4597 C.ar    1  UNL1        0.0369
     30 C         140.4663  145.2669  161.0752 C.ar    1  UNL1        0.1384
     31 C         141.5818  144.2831  160.8811 C.ar    1  UNL1        0.0326
     32 O         139.7533  145.8369  159.8849 O.3     1  UNL1       -0.4714
     33 C         140.3143  145.6374  158.5082 C.3     1  UNL1        0.2525
     34 C         143.3263  141.7063  160.7835 C.3     1  UNL1        0.0070
     35 C         144.1052  141.8977  159.5159 C.3     1  UNL1        0.0195
     36 C         144.0211  140.8747  158.4222 C.3     1  UNL1        0.0954
     37 N         143.1580  139.6602  158.5960 N.3     1  UNL1       -0.1594
     38 C         142.3791  139.4688  159.8635 C.3     1  UNL1        0.0954
     39 C         142.4632  140.4918  160.9573 C.3     1  UNL1        0.0195
     40 S         143.0739  138.6372  157.5023 S.O2    1  UNL1        0.0457
     41 C         142.9898  137.6141  156.4085 C.3     1  UNL1        0.1960
     42 O         141.8973  138.0046  158.1844 O.2     1  UNL1       -0.1572
     43 O         144.2506  139.2697  156.8201 O.2     1  UNL1       -0.1572
@<TRIPOS>BOND
     1    10    11    1
     2    11     7    1
     3     7     8   am
     4     8     9    2
     5     8    12    1
     6    12    13    1
     7    13    14   ar
     8    14    15   ar
     9    15    16   ar
    10    16    19    1
    11    19    20    1
    12    19    21    2
    13    19    22    2
    14    16    17   ar
    15    17    18   ar
    16     7     1    1
    17     1     2    1
    18     2     3    1
    19     3     4    1
    20     4    23    1
    21    23    24    1
    22    25    24    1
    23    25    26    1
    24    26    27   ar
    25    27    28   ar
    26    28    29   ar
    27    29    30   ar
    28    30    32    1
    29    32    33    1
    30    30    31   ar
    31    25    34    1
    32    34    35    1
    33    35    36    1
    34    36    37    1
    35    37    40    1
    36    40    41    1
    37    40    42    2
    38    40    43    2
    39    37    38    1
    40    38    39    1
    41     4     5    1
    42     5     6    1
    43    18    13   ar
    44     6     1    1
    45    31    26   ar
    46    39    34    1
@<TRIPOS>MOLECULE
*****
 43 46 0 0 0
SMALL
GASTEIGER

@<TRIPOS>ATOM
      1 C         142.5414  140.4324  166.6357 C.3     1  UNL1        0.0781
      2 C         143.2180  141.3988  165.7094 C.3     1  UNL1        0.0372
      3 C         143.7731  140.9199  164.4008 C.3     1  UNL1        0.0738
      4 N         143.6515  139.4746  164.0184 N.3     1  UNL1       -0.2726
      5 C         142.9748  138.5080  164.9448 C.3     1  UNL1        0.0738
      6 C         142.4198  138.9869  166.2534 C.3     1  UNL1        0.0372
      7 N         141.9863  140.9112  167.9444 N.am    1  UNL1       -0.2808
      8 C         140.5217  141.2083  168.0741 C.2     1  UNL1        0.2300
      9 O         139.9666  141.6872  169.3828 O.2     1  UNL1       -0.2745
     10 C         143.4056  142.4596  169.4733 C.3     1  UNL1        0.0233
     11 C         142.8958  141.0931  169.1232 C.3     1  UNL1        0.0934
     12 C         139.6122  141.0264  166.8952 C.3     1  UNL1        0.1116
     13 C         139.6952  141.9692  165.7314 C.ar    1  UNL1       -0.0130
     14 C         139.7958  141.4302  164.3353 C.ar    1  UNL1       -0.0025
     15 C         139.8788  142.3730  163.1716 C.ar    1  UNL1        0.0180
     16 C         139.8612  143.8548  163.4041 C.ar    1  UNL1        0.1057
     17 C         139.7606  144.3938  164.8002 C.ar    1  UNL1        0.0180
     18 C         139.6776  143.4510  165.9639 C.ar    1  UNL1       -0.0025
     19 S         139.9442  144.7976  162.2403 S.O2    1  UNL1        0.0104
     20 C         140.0271  145.7403  161.0765 C.3     1  UNL1        0.1816
     21 O         138.4690  145.0502  162.3398 O.2     1  UNL1       -0.1686
     22 O         141.4194  144.5450  162.1408 O.2     1  UNL1       -0.1686
     23 C         144.2066  138.9957  162.7098 C.3     1  UNL1        0.0724
     24 C         143.4804  137.9416  161.9278 C.3     1  UNL1        0.0217
     25 C         142.4710  138.3384  160.8916 C.3     1  UNL1        0.0239
     26 C         141.0232  138.4625  161.2637 C.ar    1  UNL1       -0.0194
     27 C         140.4967  137.7521  162.4753 C.ar    1  UNL1       -0.0041
     28 C         139.0488  137.8762  162.8474 C.ar    1  UNL1        0.0028
     29 C         138.1276  138.7108  162.0078 C.ar    1  UNL1        0.0369
     30 C         138.6542  139.4212  160.7962 C.ar    1  UNL1        0.1384
     31 C         140.1019  139.2971  160.4241 C.ar    1  UNL1        0.0326
     32 O         137.7329  140.2558  159.9567 O.3     1  UNL1       -0.4714
     33 C         138.1434  140.6656  158.5734 C.3     1  UNL1        0.2525
     34 C         142.9094  138.6112  159.4833 C.3     1  UNL1        0.0070
     35 C         142.6795  137.5845  158.4140 C.3     1  UNL1        0.0195
     36 C         143.1179  137.8573  157.0057 C.3     1  UNL1        0.0954
     37 N         143.7863  139.1566  156.6666 N.3     1  UNL1       -0.1594
     38 C         144.0163  140.1832  157.7358 C.3     1  UNL1        0.0954
     39 C         143.5778  139.9105  159.1442 C.3     1  UNL1        0.0195
     40 S         144.2247  139.4293  155.2583 S.O2    1  UNL1        0.0457
     41 C         144.6632  139.7021  153.8499 C.3     1  UNL1        0.1960
     42 O         145.2192  138.3103  155.3512 O.2     1  UNL1       -0.1572
     43 O         143.2302  140.5483  155.1654 O.2     1  UNL1       -0.1572
@<TRIPOS>BOND
     1    10    11    1
     2    11     7    1
     3     7     8   am
     4     8     9    2
     5     8    12    1
     6    12    13    1
     7    13    14   ar
     8    14    15   ar
     9    15    16   ar
    10    16    19    1
    11    19    20    1
    12    19    21    2
    13    19    22    2
    14    16    17   ar
    15    17    18   ar
    16     7     1    1
    17     1     2    1
    18     2     3    1
    19     3     4    1
    20     4    23    1
    21    23    24    1
    22    25    24    1
    23    25    26    1
    24    26    27   ar
    25    27    28   ar
    26    28    29   ar
    27    29    30   ar
    28    30    32    1
    29    32    33    1
    30    30    31   ar
    31    25    34    1
    32    34    35    1
    33    35    36    1
    34    36    37    1
    35    37    40    1
    36    40    41    1
    37    40    42    2
    38    40    43    2
    39    37    38    1
    40    38    39    1
    41     4     5    1
    42     5     6    1
    43    18    13   ar
    44     6     1    1
    45    31    26   ar
    46    39    34    1
@<TRIPOS>MOLECULE
*****
 43 46 0 0 0
SMALL
GASTEIGER

@<TRIPOS>ATOM
      1 C         141.5251  138.3843  159.8715 C.3     1  UNL1        0.0781
      2 C         140.0288  138.4600  159.7991 C.3     1  UNL1        0.0372
      3 C         139.2071  138.2639  161.0386 C.3     1  UNL1        0.0738
      4 N         139.8816  137.9921  162.3504 N.3     1  UNL1       -0.2726
      5 C         141.3780  137.9163  162.4229 C.3     1  UNL1        0.0738
      6 C         142.1998  138.1124  161.1834 C.3     1  UNL1        0.0372
      7 N         142.3469  138.5804  158.6320 N.am    1  UNL1       -0.2808
      8 C         142.5636  139.9608  158.0864 C.2     1  UNL1        0.2300
      9 O         143.3853  140.1569  156.8470 O.2     1  UNL1       -0.2745
     10 C         142.3251  136.8601  156.6853 C.3     1  UNL1        0.0233
     11 C         142.9519  137.3961  157.9382 C.3     1  UNL1        0.0934
     12 C         141.9585  141.1450  158.7803 C.3     1  UNL1        0.1116
     13 C         142.5208  141.6155  160.0890 C.ar    1  UNL1       -0.0130
     14 C         143.9713  141.9828  160.1934 C.ar    1  UNL1       -0.0025
     15 C         144.5335  142.4533  161.5021 C.ar    1  UNL1        0.0180
     16 C         143.6452  142.5564  162.7063 C.ar    1  UNL1        0.1057
     17 C         142.1946  142.1890  162.6019 C.ar    1  UNL1        0.0180
     18 C         141.6324  141.7186  161.2933 C.ar    1  UNL1       -0.0025
     19 S         144.2074  143.0268  164.0150 S.O2    1  UNL1        0.0104
     20 C         144.7696  143.4973  165.3236 C.3     1  UNL1        0.1816
     21 O         144.1452  144.4454  163.5317 O.2     1  UNL1       -0.1686
     22 O         144.2696  141.6082  164.4983 O.2     1  UNL1       -0.1686
     23 C         139.0599  137.7960  163.5899 C.3     1  UNL1        0.0724
     24 C         138.1660  138.8967  164.0790 C.3     1  UNL1        0.0217
     25 C         138.7621  140.1493  164.6496 C.3     1  UNL1        0.0239
     26 C         138.4783  141.4749  164.0076 C.ar    1  UNL1       -0.0194
     27 C         138.2488  142.6874  164.8604 C.ar    1  UNL1       -0.0041
     28 C         137.9649  144.0131  164.2183 C.ar    1  UNL1        0.0028
     29 C         137.9106  144.1262  162.7236 C.ar    1  UNL1        0.0369
     30 C         138.1401  142.9137  161.8709 C.ar    1  UNL1        0.1384
     31 C         138.4239  141.5881  162.5129 C.ar    1  UNL1        0.0326
     32 O         138.0858  143.0268  160.3761 O.3     1  UNL1       -0.4714
     33 C         138.3750  141.8280  159.5222 C.3     1  UNL1        0.2525
     34 C         139.6420  140.0763  165.8622 C.3     1  UNL1        0.0070
     35 C         141.1341  140.0855  165.7078 C.3     1  UNL1        0.0195
     36 C         142.0141  140.0125  166.9203 C.3     1  UNL1        0.0954
     37 N         141.4020  139.9304  168.2873 N.3     1  UNL1       -0.1594
     38 C         139.9101  139.9212  168.4418 C.3     1  UNL1        0.0954
     39 C         139.0300  139.9942  167.2292 C.3     1  UNL1        0.0195
     40 S         142.2820  139.8574  169.4998 S.O2    1  UNL1        0.0457
     41 C         143.1620  139.7844  170.7124 C.3     1  UNL1        0.1960
     42 O         141.4436  140.9044  170.1713 O.2     1  UNL1       -0.1572
     43 O         143.1203  138.8104  168.8284 O.2     1  UNL1       -0.1572
@<TRIPOS>BOND
     1    10    11    1
     2    11     7    1
     3     7     8   am
     4     8     9    2
     5     8    12    1
     6    12    13    1
     7    13    14   ar
     8    14    15   ar
     9    15    16   ar
    10    16    19    1
    11    19    20    1
    12    19    21    2
    13    19    22    2
    14    16    17   ar
    15    17    18   ar
    16     7     1    1
    17     1     2    1
    18     2     3    1
    19     3     4    1
    20     4    23    1
    21    23    24    1
    22    25    24    1
    23    25    26    1
    24    26    27   ar
    25    27    28   ar
    26    28    29   ar
    27    29    30   ar
    28    30    32    1
    29    32    33    1
    30    30    31   ar
    31    25    34    1
    32    34    35    1
    33    35    36    1
    34    36    37    1
    35    37    40    1
    36    40    41    1
    37    40    42    2
    38    40    43    2
    39    37    38    1
    40    38    39    1
    41     4     5    1
    42     5     6    1
    43    18    13   ar
    44     6     1    1
    45    31    26   ar
    46    39    34    1
