@<TRIPOS>MOLECULE
*****
 30 33 0 0 0
SMALL
GASTEIGER

@<TRIPOS>ATOM
      1 N         143.0119  141.6568  168.5906 N.3     1  UNL1       -0.2724
      2 C         142.2387  140.3718  168.5597 C.3     1  UNL1        0.0760
      3 C         141.5568  139.9371  167.2963 C.3     1  UNL1        0.0617
      4 C         141.6480  140.7874  166.0640 C.3     1  UNL1        0.1542
      5 C         141.7393  141.6376  164.8316 C.2     1  UNL1        0.0130
      6 C         141.0574  141.2029  163.5683 C.2     1  UNL1        0.0020
      7 C         140.2842  139.9179  163.5374 C.ar    1  UNL1        0.0338
      8 C         139.6022  139.4832  162.2740 C.ar    1  UNL1        0.0030
      9 C         138.8290  138.1983  162.2431 C.ar    1  UNL1        0.0002
     10 C         138.7377  137.3480  163.4755 C.ar    1  UNL1        0.0031
     11 C         139.4196  137.7827  164.7388 C.ar    1  UNL1        0.0369
     12 C         140.1929  139.0677  164.7697 C.ar    1  UNL1        0.1386
     13 O         140.8748  139.5024  166.0330 O.3     1  UNL1       -0.4785
     14 C         142.4213  142.0723  166.0950 C.3     1  UNL1        0.0617
     15 C         143.1032  142.5070  167.3583 C.3     1  UNL1        0.0760
     16 C         141.1487  142.0532  162.3359 C.ar    1  UNL1       -0.0001
     17 C         142.2833  141.8603  161.3740 C.ar    1  UNL1        0.0001
     18 C         142.3746  142.7106  160.1416 C.ar    1  UNL1        0.0045
     19 C         141.3313  143.7538  159.8712 C.ar    1  UNL1        0.0536
     20 C         140.1966  143.9466  160.8332 C.ar    1  UNL1        0.0045
     21 C         140.1053  143.0964  162.0655 C.ar    1  UNL1        0.0001
     22 C         141.4225  144.6041  158.6389 C.2     1  UNL1        0.2490
     23 O         142.1893  145.8928  158.6720 O.2     1  UNL1       -0.2699
     24 N         140.7469  144.1656  157.3735 N.am    1  UNL1       -0.2761
     25 C         140.8382  145.0159  156.1411 C.3     1  UNL1        0.0938
     26 C         139.9295  146.1979  155.9765 C.3     1  UNL1        0.0233
     27 C         139.9801  142.8768  157.3404 C.3     1  UNL1        0.0938
     28 C         138.4959  142.8814  157.5579 C.3     1  UNL1        0.0233
     29 C         143.1131  143.2044  170.6750 C.3     1  UNL1        0.0188
     30 C         143.6939  142.0915  169.8540 C.3     1  UNL1        0.0721
@<TRIPOS>BOND
     1    29    30    1
     2    30     1    1
     3     1     2    1
     4     2     3    1
     5     3     4    1
     6     4     5    1
     7     5     6    2
     8     6    16    1
     9    16    17   ar
    10    17    18   ar
    11    18    19   ar
    12    19    22    1
    13    22    23    2
    14    22    24   am
    15    24    25    1
    16    25    26    1
    17    24    27    1
    18    27    28    1
    19    19    20   ar
    20    20    21   ar
    21     6     7    1
    22     7     8   ar
    23     8     9   ar
    24     9    10   ar
    25    10    11   ar
    26    11    12   ar
    27    12    13    1
    28     4    14    1
    29    14    15    1
    30    15     1    1
    31    13     4    1
    32    21    16   ar
    33    12     7   ar
@<TRIPOS>MOLECULE
*****
 30 33 0 0 0
SMALL
GASTEIGER

@<TRIPOS>ATOM
      1 N         144.2986  141.8715  156.8638 N.3     1  UNL1       -0.2724
      2 C         143.4194  143.0861  156.8260 C.3     1  UNL1        0.0760
      3 C         142.7054  143.5341  158.0668 C.3     1  UNL1        0.0617
      4 C         142.8706  142.7674  159.3454 C.3     1  UNL1        0.1542
      5 C         143.0359  142.0008  160.6240 C.2     1  UNL1        0.0130
      6 C         142.3219  142.4487  161.8648 C.2     1  UNL1        0.0020
      7 C         141.4427  143.6634  161.8269 C.ar    1  UNL1        0.0338
      8 C         140.7287  144.1114  163.0677 C.ar    1  UNL1        0.0030
      9 C         139.8494  145.3260  163.0299 C.ar    1  UNL1        0.0002
     10 C         139.6841  146.0928  161.7512 C.ar    1  UNL1        0.0031
     11 C         140.3981  145.6448  160.5105 C.ar    1  UNL1        0.0369
     12 C         141.2774  144.4301  160.5483 C.ar    1  UNL1        0.1386
     13 O         141.9914  143.9821  159.3076 O.3     1  UNL1       -0.4785
     14 C         143.7499  141.5528  159.3832 C.3     1  UNL1        0.0617
     15 C         144.4639  141.1048  158.1424 C.3     1  UNL1        0.0760
     16 C         142.4872  141.6820  163.1434 C.ar    1  UNL1       -0.0001
     17 C         141.5871  140.5200  163.4428 C.ar    1  UNL1        0.0001
     18 C         141.7524  139.7533  164.7215 C.ar    1  UNL1        0.0045
     19 C         142.8178  140.1486  165.7006 C.ar    1  UNL1        0.0536
     20 C         143.7179  141.3106  165.4011 C.ar    1  UNL1        0.0045
     21 C         143.5526  142.0773  164.1225 C.ar    1  UNL1        0.0001
     22 C         142.9831  139.3819  166.9792 C.2     1  UNL1        0.2490
     23 O         143.8585  138.1644  167.0159 O.2     1  UNL1       -0.2699
     24 N         142.2731  139.8328  168.2212 N.am    1  UNL1       -0.2761
     25 C         142.4384  139.0661  169.4999 C.3     1  UNL1        0.0938
     26 C         142.8816  139.7731  170.7463 C.3     1  UNL1        0.0233
     27 C         141.3977  141.0503  168.1845 C.3     1  UNL1        0.0938
     28 C         139.9051  140.9015  168.1970 C.3     1  UNL1        0.0233
     29 C         146.3944  141.9279  155.3294 C.3     1  UNL1        0.0188
     30 C         145.0126  141.4235  155.6231 C.3     1  UNL1        0.0721
@<TRIPOS>BOND
     1    29    30    1
     2    30     1    1
     3     1     2    1
     4     2     3    1
     5     3     4    1
     6     4     5    1
     7     5     6    2
     8     6    16    1
     9    16    17   ar
    10    17    18   ar
    11    18    19   ar
    12    19    22    1
    13    22    23    2
    14    22    24   am
    15    24    25    1
    16    25    26    1
    17    24    27    1
    18    27    28    1
    19    19    20   ar
    20    20    21   ar
    21     6     7    1
    22     7     8   ar
    23     8     9   ar
    24     9    10   ar
    25    10    11   ar
    26    11    12   ar
    27    12    13    1
    28     4    14    1
    29    14    15    1
    30    15     1    1
    31    13     4    1
    32    21    16   ar
    33    12     7   ar
@<TRIPOS>MOLECULE
*****
 30 33 0 0 0
SMALL
GASTEIGER

@<TRIPOS>ATOM
      1 N         140.4243  145.1532  158.1537 N.3     1  UNL1       -0.2724
      2 C         139.5258  144.0189  157.7587 C.3     1  UNL1        0.0760
      3 C         139.2525  142.9064  158.7270 C.3     1  UNL1        0.0617
      4 C         139.8777  142.9282  160.0903 C.3     1  UNL1        0.1542
      5 C         140.5028  142.9500  161.4536 C.2     1  UNL1        0.0130
      6 C         140.2295  141.8375  162.4219 C.2     1  UNL1        0.0020
      7 C         139.3310  140.7032  162.0269 C.ar    1  UNL1        0.0338
      8 C         139.0577  139.5907  162.9952 C.ar    1  UNL1        0.0030
      9 C         138.1592  138.4564  162.6003 C.ar    1  UNL1        0.0002
     10 C         137.5340  138.4346  161.2369 C.ar    1  UNL1        0.0031
     11 C         137.8073  139.5471  160.2686 C.ar    1  UNL1        0.0369
     12 C         138.7059  140.6814  160.6636 C.ar    1  UNL1        0.1386
     13 O         138.9792  141.7939  159.6953 O.3     1  UNL1       -0.4785
     14 C         140.7762  144.0625  160.4853 C.3     1  UNL1        0.0617
     15 C         141.0495  145.1750  159.5169 C.3     1  UNL1        0.0760
     16 C         140.8548  141.8593  163.7853 C.ar    1  UNL1       -0.0001
     17 C         140.2023  142.6255  164.8974 C.ar    1  UNL1        0.0001
     18 C         140.8275  142.6473  166.2608 C.ar    1  UNL1        0.0045
     19 C         142.1053  141.9029  166.5119 C.ar    1  UNL1        0.0536
     20 C         142.7578  141.1366  165.3996 C.ar    1  UNL1        0.0045
     21 C         142.1326  141.1148  164.0363 C.ar    1  UNL1        0.0001
     22 C         142.7306  141.9247  167.8751 C.2     1  UNL1        0.2490
     23 O         143.8636  142.8637  168.1657 O.2     1  UNL1       -0.2699
     24 N         142.2228  141.0075  168.9478 N.am    1  UNL1       -0.2761
     25 C         142.8480  141.0292  170.3112 C.3     1  UNL1        0.0938
     26 C         143.2556  139.7448  170.9700 C.3     1  UNL1        0.0233
     27 C         141.0897  140.0684  168.6573 C.3     1  UNL1        0.0938
     28 C         139.7126  140.3743  169.1673 C.3     1  UNL1        0.0233
     29 C         139.5709  146.8728  156.4031 C.3     1  UNL1        0.0188
     30 C         140.6976  146.2657  157.1853 C.3     1  UNL1        0.0721
@<TRIPOS>BOND
     1    29    30    1
     2    30     1    1
     3     1     2    1
     4     2     3    1
     5     3     4    1
     6     4     5    1
     7     5     6    2
     8     6    16    1
     9    16    17   ar
    10    17    18   ar
    11    18    19   ar
    12    19    22    1
    13    22    23    2
    14    22    24   am
    15    24    25    1
    16    25    26    1
    17    24    27    1
    18    27    28    1
    19    19    20   ar
    20    20    21   ar
    21     6     7    1
    22     7     8   ar
    23     8     9   ar
    24     9    10   ar
    25    10    11   ar
    26    11    12   ar
    27    12    13    1
    28     4    14    1
    29    14    15    1
    30    15     1    1
    31    13     4    1
    32    21    16   ar
    33    12     7   ar
@<TRIPOS>MOLECULE
*****
 30 33 0 0 0
SMALL
GASTEIGER

@<TRIPOS>ATOM
      1 N         143.1343  133.2884  155.6161 N.3     1  UNL1       -0.2724
      2 C         141.8857  133.6849  154.8856 C.3     1  UNL1        0.0760
      3 C         141.2443  135.0124  155.1622 C.3     1  UNL1        0.0617
      4 C         141.8516  135.9434  156.1693 C.3     1  UNL1        0.1542
      5 C         142.4588  136.8744  157.1765 C.2     1  UNL1        0.0130
      6 C         141.8175  138.2018  157.4531 C.2     1  UNL1        0.0020
      7 C         140.5689  138.5983  156.7225 C.ar    1  UNL1        0.0338
      8 C         139.9276  139.9258  156.9991 C.ar    1  UNL1        0.0030
      9 C         138.6790  140.3223  156.2685 C.ar    1  UNL1        0.0002
     10 C         138.0717  139.3913  155.2613 C.ar    1  UNL1        0.0031
     11 C         138.7130  138.0638  154.9847 C.ar    1  UNL1        0.0369
     12 C         139.9617  137.6673  155.7154 C.ar    1  UNL1        0.1386
     13 O         140.6030  136.3399  155.4388 O.3     1  UNL1       -0.4785
     14 C         143.1002  135.5469  156.8999 C.3     1  UNL1        0.0617
     15 C         143.7415  134.2194  156.6233 C.3     1  UNL1        0.0760
     16 C         142.4248  139.1329  158.4604 C.ar    1  UNL1       -0.0001
     17 C         143.4021  140.1816  158.0187 C.ar    1  UNL1        0.0001
     18 C         144.0094  141.1126  159.0260 C.ar    1  UNL1        0.0045
     19 C         143.6394  140.9948  160.4748 C.ar    1  UNL1        0.0536
     20 C         142.6620  139.9460  160.9164 C.ar    1  UNL1        0.0045
     21 C         142.0548  139.0151  159.9092 C.ar    1  UNL1        0.0001
     22 C         144.2466  141.9257  161.4821 C.2     1  UNL1        0.2490
     23 O         145.4779  141.5167  162.2347 O.2     1  UNL1       -0.2699
     24 N         143.6226  143.2658  161.7366 N.am    1  UNL1       -0.2761
     25 C         144.2298  144.1968  162.7439 C.3     1  UNL1        0.0938
     26 C         143.3479  145.0780  163.5779 C.3     1  UNL1        0.0233
     27 C         142.3913  143.6749  160.9839 C.3     1  UNL1        0.0938
     28 C         141.0379  143.2508  161.4726 C.3     1  UNL1        0.0233
     29 C         144.9364  131.5011  156.1708 C.3     1  UNL1        0.0188
     30 C         143.7756  131.9610  155.3395 C.3     1  UNL1        0.0721
@<TRIPOS>BOND
     1    29    30    1
     2    30     1    1
     3     1     2    1
     4     2     3    1
     5     3     4    1
     6     4     5    1
     7     5     6    2
     8     6    16    1
     9    16    17   ar
    10    17    18   ar
    11    18    19   ar
    12    19    22    1
    13    22    23    2
    14    22    24   am
    15    24    25    1
    16    25    26    1
    17    24    27    1
    18    27    28    1
    19    19    20   ar
    20    20    21   ar
    21     6     7    1
    22     7     8   ar
    23     8     9   ar
    24     9    10   ar
    25    10    11   ar
    26    11    12   ar
    27    12    13    1
    28     4    14    1
    29    14    15    1
    30    15     1    1
    31    13     4    1
    32    21    16   ar
    33    12     7   ar
@<TRIPOS>MOLECULE
*****
 30 33 0 0 0
SMALL
GASTEIGER

@<TRIPOS>ATOM
      1 N         140.6130  145.1616  158.0612 N.3     1  UNL1       -0.2724
      2 C         141.2603  143.9268  157.5079 C.3     1  UNL1        0.0760
      3 C         141.6529  142.8092  158.4281 C.3     1  UNL1        0.0617
      4 C         141.3981  142.9264  159.9017 C.3     1  UNL1        0.1542
      5 C         141.1434  143.0435  161.3752 C.2     1  UNL1        0.0130
      6 C         141.5360  141.9259  162.2954 C.2     1  UNL1        0.0020
      7 C         142.1833  140.6911  161.7421 C.ar    1  UNL1        0.0338
      8 C         142.5759  139.5735  162.6623 C.ar    1  UNL1        0.0030
      9 C         143.2233  138.3387  162.1090 C.ar    1  UNL1        0.0002
     10 C         143.4780  138.2215  160.6354 C.ar    1  UNL1        0.0031
     11 C         143.0854  139.3391  159.7152 C.ar    1  UNL1        0.0369
     12 C         142.4381  140.5740  160.2686 C.ar    1  UNL1        0.1386
     13 O         142.0455  141.6916  159.3483 O.3     1  UNL1       -0.4785
     14 C         140.7508  144.1612  160.4550 C.3     1  UNL1        0.0617
     15 C         140.3582  145.2788  159.5348 C.3     1  UNL1        0.0760
     16 C         141.2812  142.0432  163.7690 C.ar    1  UNL1       -0.0001
     17 C         139.9284  141.7106  164.3250 C.ar    1  UNL1        0.0001
     18 C         139.6737  141.8278  165.7986 C.ar    1  UNL1        0.0045
     19 C         140.7718  142.2776  166.7161 C.ar    1  UNL1        0.0536
     20 C         142.1247  142.6102  166.1600 C.ar    1  UNL1        0.0045
     21 C         142.3794  142.4930  164.6865 C.ar    1  UNL1        0.0001
     22 C         140.5171  142.3948  168.1897 C.2     1  UNL1        0.2490
     23 O         140.0854  143.7071  168.7741 O.2     1  UNL1       -0.2699
     24 N         140.6941  141.1998  169.0787 N.am    1  UNL1       -0.2761
     25 C         140.4394  141.3170  170.5524 C.3     1  UNL1        0.0938
     26 C         141.5672  141.6470  171.4845 C.3     1  UNL1        0.0233
     27 C         141.1258  139.8875  168.4943 C.3     1  UNL1        0.0938
     28 C         142.5810  139.5251  168.4580 C.3     1  UNL1        0.0233
     29 C         139.6416  145.9716  155.7918 C.3     1  UNL1        0.0188
     30 C         140.2204  146.2792  157.1410 C.3     1  UNL1        0.0721
@<TRIPOS>BOND
     1    29    30    1
     2    30     1    1
     3     1     2    1
     4     2     3    1
     5     3     4    1
     6     4     5    1
     7     5     6    2
     8     6    16    1
     9    16    17   ar
    10    17    18   ar
    11    18    19   ar
    12    19    22    1
    13    22    23    2
    14    22    24   am
    15    24    25    1
    16    25    26    1
    17    24    27    1
    18    27    28    1
    19    19    20   ar
    20    20    21   ar
    21     6     7    1
    22     7     8   ar
    23     8     9   ar
    24     9    10   ar
    25    10    11   ar
    26    11    12   ar
    27    12    13    1
    28     4    14    1
    29    14    15    1
    30    15     1    1
    31    13     4    1
    32    21    16   ar
    33    12     7   ar
@<TRIPOS>MOLECULE
*****
 30 33 0 0 0
SMALL
GASTEIGER

@<TRIPOS>ATOM
      1 N         144.5500  141.9222  158.0162 N.3     1  UNL1       -0.2724
      2 C         143.3790  141.1009  157.5645 C.3     1  UNL1        0.0760
      3 C         142.4118  140.5555  158.5730 C.3     1  UNL1        0.0617
      4 C         142.6156  140.8314  160.0332 C.3     1  UNL1        0.1542
      5 C         142.8193  141.1074  161.4934 C.2     1  UNL1        0.0130
      6 C         141.8521  140.5620  162.5019 C.2     1  UNL1        0.0020
      7 C         140.6811  139.7407  162.0501 C.ar    1  UNL1        0.0338
      8 C         139.7139  139.1953  163.0586 C.ar    1  UNL1        0.0030
      9 C         138.5429  138.3740  162.6068 C.ar    1  UNL1        0.0002
     10 C         138.3390  138.0980  161.1466 C.ar    1  UNL1        0.0031
     11 C         139.3063  138.6434  160.1381 C.ar    1  UNL1        0.0369
     12 C         140.4773  139.4647  160.5899 C.ar    1  UNL1        0.1386
     13 O         141.4446  140.0101  159.5814 O.3     1  UNL1       -0.4785
     14 C         143.7866  141.6527  160.4849 C.3     1  UNL1        0.0617
     15 C         144.7538  142.1981  159.4764 C.3     1  UNL1        0.0760
     16 C         142.0559  140.8380  163.9622 C.ar    1  UNL1       -0.0001
     17 C         142.8691  139.8941  164.7974 C.ar    1  UNL1        0.0001
     18 C         143.0730  140.1701  166.2577 C.ar    1  UNL1        0.0045
     19 C         142.4636  141.3899  166.8826 C.ar    1  UNL1        0.0536
     20 C         141.6503  142.3338  166.0473 C.ar    1  UNL1        0.0045
     21 C         141.4465  142.0578  164.5871 C.ar    1  UNL1        0.0001
     22 C         142.6674  141.6660  168.3429 C.2     1  UNL1        0.2490
     23 O         143.6619  142.7007  168.7789 O.2     1  UNL1       -0.2699
     24 N         141.8766  140.9072  169.3670 N.am    1  UNL1       -0.2761
     25 C         142.0804  141.1832  170.8273 C.3     1  UNL1        0.0938
     26 C         141.1008  142.0406  171.5724 C.3     1  UNL1        0.0233
     27 C         140.8821  139.8724  168.9310 C.3     1  UNL1        0.0938
     28 C         139.4462  140.2531  168.7226 C.3     1  UNL1        0.0233
     29 C         146.2272  141.5369  156.0698 C.3     1  UNL1        0.0188
     30 C         145.5173  142.4676  157.0078 C.3     1  UNL1        0.0721
@<TRIPOS>BOND
     1    29    30    1
     2    30     1    1
     3     1     2    1
     4     2     3    1
     5     3     4    1
     6     4     5    1
     7     5     6    2
     8     6    16    1
     9    16    17   ar
    10    17    18   ar
    11    18    19   ar
    12    19    22    1
    13    22    23    2
    14    22    24   am
    15    24    25    1
    16    25    26    1
    17    24    27    1
    18    27    28    1
    19    19    20   ar
    20    20    21   ar
    21     6     7    1
    22     7     8   ar
    23     8     9   ar
    24     9    10   ar
    25    10    11   ar
    26    11    12   ar
    27    12    13    1
    28     4    14    1
    29    14    15    1
    30    15     1    1
    31    13     4    1
    32    21    16   ar
    33    12     7   ar
@<TRIPOS>MOLECULE
*****
 30 33 0 0 0
SMALL
GASTEIGER

@<TRIPOS>ATOM
      1 N         138.5808  139.1703  166.1649 N.3     1  UNL1       -0.2724
      2 C         139.3402  140.3927  166.5882 C.3     1  UNL1        0.0760
      3 C         140.3513  141.0047  165.6646 C.3     1  UNL1        0.0617
      4 C         140.6030  140.3944  164.3177 C.3     1  UNL1        0.1542
      5 C         140.8547  139.7842  162.9708 C.2     1  UNL1        0.0130
      6 C         141.8658  140.3962  162.0472 C.2     1  UNL1        0.0020
      7 C         142.6252  141.6185  162.4705 C.ar    1  UNL1        0.0338
      8 C         143.6363  142.2306  161.5468 C.ar    1  UNL1        0.0030
      9 C         144.3957  143.4529  161.9701 C.ar    1  UNL1        0.0002
     10 C         144.1440  144.0632  163.3171 C.ar    1  UNL1        0.0031
     11 C         143.1329  143.4512  164.2407 C.ar    1  UNL1        0.0369
     12 C         142.3735  142.2288  163.8173 C.ar    1  UNL1        0.1386
     13 O         141.3624  141.6168  164.7410 O.3     1  UNL1       -0.4785
     14 C         139.8436  139.1721  163.8944 C.3     1  UNL1        0.0617
     15 C         138.8325  138.5601  164.8180 C.3     1  UNL1        0.0760
     16 C         142.1175  139.7859  160.7002 C.ar    1  UNL1       -0.0001
     17 C         142.6284  138.3793  160.5978 C.ar    1  UNL1        0.0001
     18 C         142.8801  137.7690  159.2508 C.ar    1  UNL1        0.0045
     19 C         142.6209  138.5652  158.0064 C.ar    1  UNL1        0.0536
     20 C         142.1099  139.9719  158.1089 C.ar    1  UNL1        0.0045
     21 C         141.8583  140.5821  159.4558 C.ar    1  UNL1        0.0001
     22 C         142.8725  137.9550  156.6595 C.2     1  UNL1        0.2490
     23 O         144.2559  137.9615  156.0797 O.2     1  UNL1       -0.2699
     24 N         141.7407  137.3382  155.8923 N.am    1  UNL1       -0.2761
     25 C         141.9924  136.7278  154.5453 C.3     1  UNL1        0.0938
     26 C         142.4767  135.3120  154.4421 C.3     1  UNL1        0.0233
     27 C         140.3573  137.3316  156.4720 C.3     1  UNL1        0.0938
     28 C         139.1842  136.9723  155.6090 C.3     1  UNL1        0.0233
     29 C         137.2961  137.0846  167.0305 C.3     1  UNL1        0.0188
     30 C         137.5697  138.5583  167.0886 C.3     1  UNL1        0.0721
@<TRIPOS>BOND
     1    29    30    1
     2    30     1    1
     3     1     2    1
     4     2     3    1
     5     3     4    1
     6     4     5    1
     7     5     6    2
     8     6    16    1
     9    16    17   ar
    10    17    18   ar
    11    18    19   ar
    12    19    22    1
    13    22    23    2
    14    22    24   am
    15    24    25    1
    16    25    26    1
    17    24    27    1
    18    27    28    1
    19    19    20   ar
    20    20    21   ar
    21     6     7    1
    22     7     8   ar
    23     8     9   ar
    24     9    10   ar
    25    10    11   ar
    26    11    12   ar
    27    12    13    1
    28     4    14    1
    29    14    15    1
    30    15     1    1
    31    13     4    1
    32    21    16   ar
    33    12     7   ar
@<TRIPOS>MOLECULE
*****
 30 33 0 0 0
SMALL
GASTEIGER

@<TRIPOS>ATOM
      1 N         138.3045  139.1680  166.6239 N.3     1  UNL1       -0.2724
      2 C         139.5127  139.6815  167.3494 C.3     1  UNL1        0.0760
      3 C         140.4881  140.5756  166.6429 C.3     1  UNL1        0.0617
      4 C         140.2552  140.9562  165.2108 C.3     1  UNL1        0.1542
      5 C         140.0224  141.3368  163.7787 C.2     1  UNL1        0.0130
      6 C         140.9978  142.2309  163.0722 C.2     1  UNL1        0.0020
      7 C         142.2060  142.7444  163.7977 C.ar    1  UNL1        0.0338
      8 C         143.1814  143.6385  163.0912 C.ar    1  UNL1        0.0030
      9 C         144.3897  144.1520  163.8168 C.ar    1  UNL1        0.0002
     10 C         144.6225  143.7714  165.2489 C.ar    1  UNL1        0.0031
     11 C         143.6471  142.8773  165.9554 C.ar    1  UNL1        0.0369
     12 C         142.4389  142.3638  165.2298 C.ar    1  UNL1        0.1386
     13 O         141.4635  141.4697  165.9363 O.3     1  UNL1       -0.4785
     14 C         139.0470  140.4426  164.4852 C.3     1  UNL1        0.0617
     15 C         138.0716  139.5485  165.1918 C.3     1  UNL1        0.0760
     16 C         140.7649  142.6114  161.6400 C.ar    1  UNL1       -0.0001
     17 C         140.1239  143.9263  161.3081 C.ar    1  UNL1        0.0001
     18 C         139.8910  144.3069  159.8760 C.ar    1  UNL1        0.0045
     19 C         140.2992  143.3726  158.7758 C.ar    1  UNL1        0.0536
     20 C         140.9403  142.0576  159.1077 C.ar    1  UNL1        0.0045
     21 C         141.1731  141.6771  160.5398 C.ar    1  UNL1        0.0001
     22 C         140.0664  143.7531  157.3437 C.2     1  UNL1        0.2490
     23 O         141.1204  144.5054  156.5866 O.2     1  UNL1       -0.2699
     24 N         138.7795  143.3813  156.6686 N.am    1  UNL1       -0.2761
     25 C         138.5466  143.7618  155.2365 C.3     1  UNL1        0.0938
     26 C         137.3758  144.6251  154.8707 C.3     1  UNL1        0.0233
     27 C         137.7255  142.6290  157.4257 C.3     1  UNL1        0.0938
     28 C         137.6120  141.1409  157.2749 C.3     1  UNL1        0.0233
     29 C         137.2728  136.8127  166.9960 C.3     1  UNL1        0.0188
     30 C         137.3291  138.2739  167.3304 C.3     1  UNL1        0.0721
@<TRIPOS>BOND
     1    29    30    1
     2    30     1    1
     3     1     2    1
     4     2     3    1
     5     3     4    1
     6     4     5    1
     7     5     6    2
     8     6    16    1
     9    16    17   ar
    10    17    18   ar
    11    18    19   ar
    12    19    22    1
    13    22    23    2
    14    22    24   am
    15    24    25    1
    16    25    26    1
    17    24    27    1
    18    27    28    1
    19    19    20   ar
    20    20    21   ar
    21     6     7    1
    22     7     8   ar
    23     8     9   ar
    24     9    10   ar
    25    10    11   ar
    26    11    12   ar
    27    12    13    1
    28     4    14    1
    29    14    15    1
    30    15     1    1
    31    13     4    1
    32    21    16   ar
    33    12     7   ar
@<TRIPOS>MOLECULE
*****
 30 33 0 0 0
SMALL
GASTEIGER

@<TRIPOS>ATOM
      1 N         146.6780  141.7341  156.1310 N.3     1  UNL1       -0.2724
      2 C         146.2180  140.5607  155.3177 C.3     1  UNL1        0.0760
      3 C         144.8861  139.9300  155.5978 C.3     1  UNL1        0.0617
      4 C         144.0144  140.4727  156.6912 C.3     1  UNL1        0.1542
      5 C         143.1426  141.0154  157.7845 C.2     1  UNL1        0.0130
      6 C         141.8108  140.3847  158.0646 C.2     1  UNL1        0.0020
      7 C         141.3507  139.2113  157.2513 C.ar    1  UNL1        0.0338
      8 C         140.0189  138.5806  157.5314 C.ar    1  UNL1        0.0030
      9 C         139.5588  137.4072  156.7181 C.ar    1  UNL1        0.0002
     10 C         140.4306  136.8644  155.6247 C.ar    1  UNL1        0.0031
     11 C         141.7624  137.4951  155.3446 C.ar    1  UNL1        0.0369
     12 C         142.2225  138.6686  156.1580 C.ar    1  UNL1        0.1386
     13 O         143.5543  139.2993  155.8779 O.3     1  UNL1       -0.4785
     14 C         144.4744  141.6461  157.5044 C.3     1  UNL1        0.0617
     15 C         145.8063  142.2768  157.2243 C.3     1  UNL1        0.0760
     16 C         140.9390  140.9274  159.1580 C.ar    1  UNL1       -0.0001
     17 C         139.8773  141.9378  158.8389 C.ar    1  UNL1        0.0001
     18 C         139.0055  142.4806  159.9323 C.ar    1  UNL1        0.0045
     19 C         139.1955  142.0128  161.3448 C.ar    1  UNL1        0.0536
     20 C         140.2572  141.0024  161.6639 C.ar    1  UNL1        0.0045
     21 C         141.1289  140.4597  160.5705 C.ar    1  UNL1        0.0001
     22 C         138.3238  142.5555  162.4382 C.2     1  UNL1        0.2490
     23 O         137.0614  141.8390  162.8163 O.2     1  UNL1       -0.2699
     24 N         138.7145  143.8147  163.1536 N.am    1  UNL1       -0.2761
     25 C         137.8428  144.3574  164.2471 C.3     1  UNL1        0.0938
     26 C         138.4595  144.8545  165.5208 C.3     1  UNL1        0.0233
     27 C         139.9769  144.5312  162.7755 C.3     1  UNL1        0.0938
     28 C         139.9065  145.8564  162.0763 C.3     1  UNL1        0.0233
     29 C         148.7036  142.1044  154.5468 C.3     1  UNL1        0.0188
     30 C         148.0098  142.3648  155.8509 C.3     1  UNL1        0.0721
@<TRIPOS>BOND
     1    29    30    1
     2    30     1    1
     3     1     2    1
     4     2     3    1
     5     3     4    1
     6     4     5    1
     7     5     6    2
     8     6    16    1
     9    16    17   ar
    10    17    18   ar
    11    18    19   ar
    12    19    22    1
    13    22    23    2
    14    22    24   am
    15    24    25    1
    16    25    26    1
    17    24    27    1
    18    27    28    1
    19    19    20   ar
    20    20    21   ar
    21     6     7    1
    22     7     8   ar
    23     8     9   ar
    24     9    10   ar
    25    10    11   ar
    26    11    12   ar
    27    12    13    1
    28     4    14    1
    29    14    15    1
    30    15     1    1
    31    13     4    1
    32    21    16   ar
    33    12     7   ar
