@<TRIPOS>MOLECULE
*****
 29 33 0 0 0
SMALL
GASTEIGER

@<TRIPOS>ATOM
      1 C         143.2158  138.3837  162.4651 C.3     1  UNL1        0.0294
      2 C         143.5398  139.7497  162.9935 C.3     1  UNL1        0.0666
      3 S         144.1998  139.8988  164.3322 S.3     1  UNL1       -0.0756
      4 C         142.2471  141.1026  167.4633 C.ar    1  UNL1        0.2029
      5 N         141.9087  139.6412  167.4547 N.ar    1  UNL1       -0.1250
      6 N         142.5990  139.0124  166.2808 N.ar    1  UNL1       -0.1220
      7 C         143.3640  140.0852  165.5638 C.ar    1  UNL1        0.1933
      8 N         143.1465  141.3769  166.2946 N.ar    1  UNL1       -0.2860
      9 C         143.7266  142.7091  165.9221 C.3     1  UNL1        0.1341
     10 C         144.0245  142.4054  169.8702 C.3     1  UNL1        0.0556
     11 C         142.5868  142.7111  169.5710 C.ar    1  UNL1        0.1001
     12 N         141.7136  143.6693  170.3256 N.ar    1  UNL1       -0.2085
     13 C         140.3570  143.6626  169.6856 C.ar    1  UNL1        0.2849
     14 O         140.3917  142.7003  168.5355 O.2     1  UNL1       -0.4283
     15 C         141.7698  142.1122  168.4647 C.ar    1  UNL1        0.1964
     16 C         141.7877  137.9901  162.2291 C.3     1  UNL1        0.0730
     17 N         140.7797  138.1283  163.3312 N.3     1  UNL1       -0.2726
     18 C         140.2741  137.0209  164.2076 C.3     1  UNL1        0.0721
     19 C         139.2822  137.6064  165.1685 C.3     1  UNL1        0.0190
     20 C         139.1748  139.0757  164.8860 C.3     1  UNL1        0.0201
     21 C         138.1611  139.3667  165.9526 C.3     1  UNL1        0.0061
     22 C         138.6667  140.4741  165.0762 C.3     1  UNL1        0.0237
     23 C         140.1003  139.3982  163.7505 C.3     1  UNL1        0.0724
     24 C         138.6653  141.9209  164.6801 C.ar    1  UNL1       -0.0225
     25 C         139.6655  142.8639  165.2805 C.ar    1  UNL1       -0.0043
     26 C         139.6641  144.3106  164.8843 C.ar    1  UNL1       -0.0003
     27 C         138.6625  144.8143  163.8878 C.ar    1  UNL1       -0.0000
     28 C         137.6624  143.8713  163.2873 C.ar    1  UNL1       -0.0003
     29 C         137.6638  142.4246  163.6835 C.ar    1  UNL1       -0.0043
@<TRIPOS>BOND
     1    10    11    1
     2    11    12   ar
     3    12    13   ar
     4    13    14   ar
     5    14    15   ar
     6    15     4    1
     7     4     5   ar
     8     5     6   ar
     9     6     7   ar
    10     7     3    1
    11     3     2    1
    12     2     1    1
    13     1    16    1
    14    16    17    1
    15    17    18    1
    16    18    19    1
    17    20    19    1
    18    20    21    1
    19    21    22    1
    20    22    24    1
    21    24    25   ar
    22    25    26   ar
    23    26    27   ar
    24    27    28   ar
    25    28    29   ar
    26    20    23    1
    27     7     8   ar
    28     8     9    1
    29    15    11   ar
    30     8     4   ar
    31    23    17    1
    32    22    20    1
    33    29    24   ar
@<TRIPOS>MOLECULE
*****
 29 33 0 0 0
SMALL
GASTEIGER

@<TRIPOS>ATOM
      1 C         143.9000  139.8616  164.7429 C.3     1  UNL1        0.0294
      2 C         145.2649  140.0804  164.1604 C.3     1  UNL1        0.0666
      3 S         145.6194  141.4076  163.5583 S.3     1  UNL1       -0.0756
      4 C         142.8003  143.9805  162.8518 C.ar    1  UNL1        0.2029
      5 N         143.3117  144.4669  164.1754 N.ar    1  UNL1       -0.1250
      6 N         144.4300  143.5623  164.6011 N.ar    1  UNL1       -0.1220
      7 C         144.6097  142.5168  163.5407 C.ar    1  UNL1        0.1933
      8 N         143.6025  142.7752  162.4595 N.ar    1  UNL1       -0.2860
      9 C         143.4282  141.9698  161.2062 C.3     1  UNL1        0.1341
     10 C         139.8329  144.7303  163.9841 C.3     1  UNL1        0.0556
     11 C         140.3189  144.9365  162.5801 C.ar    1  UNL1        0.1001
     12 N         139.5263  145.5236  161.4500 N.ar    1  UNL1       -0.2085
     13 C         140.4004  145.5419  160.2311 C.ar    1  UNL1        0.2849
     14 O         141.7332  144.9660  160.6079 O.2     1  UNL1       -0.4283
     15 C         141.6828  144.5919  162.0596 C.ar    1  UNL1        0.1964
     16 C         142.8774  139.0714  163.9815 C.3     1  UNL1        0.0730
     17 N         141.5006  138.8846  164.5469 N.3     1  UNL1       -0.2726
     18 C         140.4069  138.0512  163.9474 C.3     1  UNL1        0.0721
     19 C         139.2062  138.1500  164.8411 C.3     1  UNL1        0.0190
     20 C         139.5579  139.0443  165.9929 C.3     1  UNL1        0.0201
     21 C         138.2255  138.9520  166.6756 C.3     1  UNL1        0.0061
     22 C         139.3192  139.7854  167.2750 C.3     1  UNL1        0.0237
     23 C         140.9759  139.4983  165.8110 C.3     1  UNL1        0.0724
     24 C         139.8128  140.6944  168.3613 C.ar    1  UNL1       -0.0225
     25 C         140.0638  140.1517  169.7370 C.ar    1  UNL1       -0.0043
     26 C         140.5574  141.0606  170.8233 C.ar    1  UNL1       -0.0003
     27 C         140.8001  142.5123  170.5339 C.ar    1  UNL1       -0.0000
     28 C         140.5492  143.0550  169.1582 C.ar    1  UNL1       -0.0003
     29 C         140.0555  142.1460  168.0719 C.ar    1  UNL1       -0.0043
@<TRIPOS>BOND
     1    10    11    1
     2    11    12   ar
     3    12    13   ar
     4    13    14   ar
     5    14    15   ar
     6    15     4    1
     7     4     5   ar
     8     5     6   ar
     9     6     7   ar
    10     7     3    1
    11     3     2    1
    12     2     1    1
    13     1    16    1
    14    16    17    1
    15    17    18    1
    16    18    19    1
    17    20    19    1
    18    20    21    1
    19    21    22    1
    20    22    24    1
    21    24    25   ar
    22    25    26   ar
    23    26    27   ar
    24    27    28   ar
    25    28    29   ar
    26    20    23    1
    27     7     8   ar
    28     8     9    1
    29    15    11   ar
    30     8     4   ar
    31    23    17    1
    32    22    20    1
    33    29    24   ar
@<TRIPOS>MOLECULE
*****
 29 33 0 0 0
SMALL
GASTEIGER

@<TRIPOS>ATOM
      1 C         143.4228  143.0444  162.7173 C.3     1  UNL1        0.0294
      2 C         144.2023  141.8392  163.1532 C.3     1  UNL1        0.0666
      3 S         144.3821  141.5504  164.6141 S.3     1  UNL1       -0.0756
      4 C         141.7316  140.1544  167.0822 C.ar    1  UNL1        0.2029
      5 N         141.6469  139.1528  165.9687 N.ar    1  UNL1       -0.1250
      6 N         142.6294  139.5538  164.9087 N.ar    1  UNL1       -0.1220
      7 C         143.3214  140.8033  165.3669 C.ar    1  UNL1        0.1933
      8 N         142.7665  141.1745  166.7102 N.ar    1  UNL1       -0.2860
      9 C         143.1749  142.3580  167.5364 C.3     1  UNL1        0.1341
     10 C         142.6686  138.8951  169.9432 C.3     1  UNL1        0.0556
     11 C         141.3540  139.5598  169.6607 C.ar    1  UNL1        0.1001
     12 N         140.2392  139.7625  170.6437 N.ar    1  UNL1       -0.2085
     13 C         139.1195  140.4665  169.9361 C.ar    1  UNL1        0.2849
     14 O         139.5423  140.6990  168.5158 O.2     1  UNL1       -0.4283
     15 C         140.9232  140.1387  168.3457 C.ar    1  UNL1        0.1964
     16 C         142.6323  143.8299  163.7213 C.3     1  UNL1        0.0730
     17 N         141.1331  143.8081  163.6784 N.3     1  UNL1       -0.2726
     18 C         140.2427  144.9761  163.3735 C.3     1  UNL1        0.0721
     19 C         138.8204  144.5043  163.4396 C.3     1  UNL1        0.0190
     20 C         138.8317  143.0447  163.7853 C.3     1  UNL1        0.0201
     21 C         137.3419  142.8704  163.7788 C.3     1  UNL1        0.0061
     22 C         138.2322  141.7024  164.0837 C.3     1  UNL1        0.0237
     23 C         140.2610  142.6144  163.9330 C.3     1  UNL1        0.0724
     24 C         138.4002  140.2532  164.4321 C.ar    1  UNL1       -0.0225
     25 C         138.0579  139.7683  165.8097 C.ar    1  UNL1       -0.0043
     26 C         138.2259  138.3191  166.1580 C.ar    1  UNL1       -0.0003
     27 C         138.7363  137.3546  165.1288 C.ar    1  UNL1       -0.0000
     28 C         139.0786  137.8395  163.7511 C.ar    1  UNL1       -0.0003
     29 C         138.9106  139.2887  163.4028 C.ar    1  UNL1       -0.0043
@<TRIPOS>BOND
     1    10    11    1
     2    11    12   ar
     3    12    13   ar
     4    13    14   ar
     5    14    15   ar
     6    15     4    1
     7     4     5   ar
     8     5     6   ar
     9     6     7   ar
    10     7     3    1
    11     3     2    1
    12     2     1    1
    13     1    16    1
    14    16    17    1
    15    17    18    1
    16    18    19    1
    17    20    19    1
    18    20    21    1
    19    21    22    1
    20    22    24    1
    21    24    25   ar
    22    25    26   ar
    23    26    27   ar
    24    27    28   ar
    25    28    29   ar
    26    20    23    1
    27     7     8   ar
    28     8     9    1
    29    15    11   ar
    30     8     4   ar
    31    23    17    1
    32    22    20    1
    33    29    24   ar
@<TRIPOS>MOLECULE
*****
 29 33 0 0 0
SMALL
GASTEIGER

@<TRIPOS>ATOM
      1 C         138.9920  138.2357  161.7558 C.3     1  UNL1        0.0294
      2 C         138.9691  137.8002  163.1911 C.3     1  UNL1        0.0666
      3 S         140.1891  137.9724  164.0466 S.3     1  UNL1       -0.0756
      4 C         140.7208  139.9264  167.3580 C.ar    1  UNL1        0.2029
      5 N         139.2275  139.9793  167.2267 N.ar    1  UNL1       -0.1250
      6 N         138.8465  139.2538  165.9703 N.ar    1  UNL1       -0.1220
      7 C         140.1044  138.7525  165.3250 C.ar    1  UNL1        0.1933
      8 N         141.2628  139.1681  166.1826 N.ar    1  UNL1       -0.2860
      9 C         142.7092  138.8767  165.9123 C.3     1  UNL1        0.1341
     10 C         140.4805  142.9847  168.4709 C.3     1  UNL1        0.0556
     11 C         141.4196  141.9321  168.9809 C.ar    1  UNL1        0.1001
     12 N         142.4131  142.1003  170.0920 N.ar    1  UNL1       -0.2085
     13 C         143.1376  140.7986  170.2672 C.ar    1  UNL1        0.2849
     14 O         142.5918  139.8258  169.2643 O.2     1  UNL1       -0.4283
     15 C         141.5300  140.5263  168.4694 C.ar    1  UNL1        0.1964
     16 C         139.2357  139.6755  161.4127 C.3     1  UNL1        0.0730
     17 N         138.8331  140.7542  162.3741 N.3     1  UNL1       -0.2726
     18 C         137.4288  141.1078  162.7648 C.3     1  UNL1        0.0721
     19 C         137.4920  142.2408  163.7458 C.3     1  UNL1        0.0190
     20 C         138.9354  142.5874  163.9613 C.3     1  UNL1        0.0201
     21 C         138.6860  143.6965  164.9399 C.3     1  UNL1        0.0061
     22 C         140.0904  143.3428  164.5491 C.3     1  UNL1        0.0237
     23 C         139.7643  141.6686  163.1135 C.3     1  UNL1        0.0724
     24 C         141.5679  143.5748  164.6629 C.ar    1  UNL1       -0.0225
     25 C         142.1968  144.7537  163.9812 C.ar    1  UNL1       -0.0043
     26 C         143.6743  144.9856  164.0950 C.ar    1  UNL1       -0.0003
     27 C         144.5231  144.0386  164.8905 C.ar    1  UNL1       -0.0000
     28 C         143.8942  142.8597  165.5722 C.ar    1  UNL1       -0.0003
     29 C         142.4167  142.6278  165.4584 C.ar    1  UNL1       -0.0043
@<TRIPOS>BOND
     1    10    11    1
     2    11    12   ar
     3    12    13   ar
     4    13    14   ar
     5    14    15   ar
     6    15     4    1
     7     4     5   ar
     8     5     6   ar
     9     6     7   ar
    10     7     3    1
    11     3     2    1
    12     2     1    1
    13     1    16    1
    14    16    17    1
    15    17    18    1
    16    18    19    1
    17    20    19    1
    18    20    21    1
    19    21    22    1
    20    22    24    1
    21    24    25   ar
    22    25    26   ar
    23    26    27   ar
    24    27    28   ar
    25    28    29   ar
    26    20    23    1
    27     7     8   ar
    28     8     9    1
    29    15    11   ar
    30     8     4   ar
    31    23    17    1
    32    22    20    1
    33    29    24   ar
@<TRIPOS>MOLECULE
*****
 29 33 0 0 0
SMALL
GASTEIGER

@<TRIPOS>ATOM
      1 C         141.3393  144.9983  163.0090 C.3     1  UNL1        0.0294
      2 C         140.0136  145.2695  162.3616 C.3     1  UNL1        0.0666
      3 S         138.7463  144.8378  163.0380 S.3     1  UNL1       -0.0756
      4 C         138.1454  141.0715  163.7587 C.ar    1  UNL1        0.2029
      5 N         137.4232  141.2359  162.4542 N.ar    1  UNL1       -0.1250
      6 N         137.5604  142.6667  162.0255 N.ar    1  UNL1       -0.1220
      7 C         138.3674  143.3867  163.0650 C.ar    1  UNL1        0.1933
      8 N         138.7290  142.4008  164.1361 N.ar    1  UNL1       -0.2860
      9 C         139.5329  142.6929  165.3683 C.3     1  UNL1        0.1341
     10 C         139.3528  138.2424  162.6684 C.3     1  UNL1        0.0556
     11 C         138.8183  138.5005  164.0460 C.ar    1  UNL1        0.1001
     12 N         138.7450  137.5036  165.1644 N.ar    1  UNL1       -0.2085
     13 C         138.1448  138.1878  166.3567 C.ar    1  UNL1        0.2849
     14 O         137.8471  139.6076  165.9752 O.2     1  UNL1       -0.4283
     15 C         138.2634  139.8009  164.5471 C.ar    1  UNL1        0.1964
     16 C         142.4869  144.4935  162.1855 C.3     1  UNL1        0.0730
     17 N         143.2274  143.2593  162.6078 N.3     1  UNL1       -0.2726
     18 C         144.2812  142.5478  161.8121 C.3     1  UNL1        0.0721
     19 C         144.7492  141.3687  162.6125 C.3     1  UNL1        0.0190
     20 C         143.9846  141.3515  163.9029 C.3     1  UNL1        0.0201
     21 C         144.6412  140.1223  164.4578 C.3     1  UNL1        0.0061
     22 C         143.5873  140.8338  165.2535 C.3     1  UNL1        0.0237
     23 C         143.0441  142.5200  163.9000 C.3     1  UNL1        0.0724
     24 C         142.7495  140.9457  166.4927 C.ar    1  UNL1       -0.0225
     25 C         141.6864  139.9256  166.7739 C.ar    1  UNL1       -0.0043
     26 C         140.8486  140.0375  168.0131 C.ar    1  UNL1       -0.0003
     27 C         141.0739  141.1695  168.9710 C.ar    1  UNL1       -0.0000
     28 C         142.1371  142.1897  168.6898 C.ar    1  UNL1       -0.0003
     29 C         142.9749  142.0778  167.4506 C.ar    1  UNL1       -0.0043
@<TRIPOS>BOND
     1    10    11    1
     2    11    12   ar
     3    12    13   ar
     4    13    14   ar
     5    14    15   ar
     6    15     4    1
     7     4     5   ar
     8     5     6   ar
     9     6     7   ar
    10     7     3    1
    11     3     2    1
    12     2     1    1
    13     1    16    1
    14    16    17    1
    15    17    18    1
    16    18    19    1
    17    20    19    1
    18    20    21    1
    19    21    22    1
    20    22    24    1
    21    24    25   ar
    22    25    26   ar
    23    26    27   ar
    24    27    28   ar
    25    28    29   ar
    26    20    23    1
    27     7     8   ar
    28     8     9    1
    29    15    11   ar
    30     8     4   ar
    31    23    17    1
    32    22    20    1
    33    29    24   ar
@<TRIPOS>MOLECULE
*****
 29 33 0 0 0
SMALL
GASTEIGER

@<TRIPOS>ATOM
      1 C         139.1988  137.9513  165.1656 C.3     1  UNL1        0.0294
      2 C         138.8647  137.6993  163.7252 C.3     1  UNL1        0.0666
      3 S         139.4582  138.5665  162.6548 S.3     1  UNL1       -0.0756
      4 C         138.9181  142.3733  162.1236 C.ar    1  UNL1        0.2029
      5 N         137.5021  141.8939  162.2459 N.ar    1  UNL1       -0.1250
      6 N         137.5320  140.4095  162.4597 N.ar    1  UNL1       -0.1220
      7 C         138.9666  139.9715  162.4697 C.ar    1  UNL1        0.1933
      8 N         139.8233  141.1852  162.2619 N.ar    1  UNL1       -0.2860
      9 C         141.3220  141.2069  162.2029 C.3     1  UNL1        0.1341
     10 C         139.5548  144.5704  164.4511 C.3     1  UNL1        0.0556
     11 C         139.6454  144.8017  162.9718 C.ar    1  UNL1        0.1001
     12 N         140.0445  146.0834  162.3026 N.ar    1  UNL1       -0.2085
     13 C         139.9985  145.8657  160.8191 C.ar    1  UNL1        0.2849
     14 O         139.5710  144.4494  160.5716 O.2     1  UNL1       -0.4283
     15 C         139.3527  143.7918  161.9020 C.ar    1  UNL1        0.1964
     16 C         138.7445  139.2166  165.8308 C.3     1  UNL1        0.0730
     17 N         139.6991  140.0018  166.6805 N.3     1  UNL1       -0.2726
     18 C         139.6230  140.1674  168.1694 C.3     1  UNL1        0.0721
     19 C         140.7743  141.0272  168.5996 C.3     1  UNL1        0.0190
     20 C         141.5620  141.3930  167.3767 C.3     1  UNL1        0.0201
     21 C         142.5938  142.2122  168.0939 C.3     1  UNL1        0.0061
     22 C         142.6700  142.0466  166.6050 C.3     1  UNL1        0.0237
     23 C         140.8975  140.7593  166.1906 C.3     1  UNL1        0.0724
     24 C         143.3535  142.3284  165.2999 C.ar    1  UNL1       -0.0225
     25 C         143.1409  143.6434  164.6104 C.ar    1  UNL1       -0.0043
     26 C         143.8245  143.9252  163.3053 C.ar    1  UNL1       -0.0003
     27 C         144.7207  142.8918  162.6897 C.ar    1  UNL1       -0.0000
     28 C         144.9334  141.5768  163.3792 C.ar    1  UNL1       -0.0003
     29 C         144.2498  141.2950  164.6843 C.ar    1  UNL1       -0.0043
@<TRIPOS>BOND
     1    10    11    1
     2    11    12   ar
     3    12    13   ar
     4    13    14   ar
     5    14    15   ar
     6    15     4    1
     7     4     5   ar
     8     5     6   ar
     9     6     7   ar
    10     7     3    1
    11     3     2    1
    12     2     1    1
    13     1    16    1
    14    16    17    1
    15    17    18    1
    16    18    19    1
    17    20    19    1
    18    20    21    1
    19    21    22    1
    20    22    24    1
    21    24    25   ar
    22    25    26   ar
    23    26    27   ar
    24    27    28   ar
    25    28    29   ar
    26    20    23    1
    27     7     8   ar
    28     8     9    1
    29    15    11   ar
    30     8     4   ar
    31    23    17    1
    32    22    20    1
    33    29    24   ar
@<TRIPOS>MOLECULE
*****
 29 33 0 0 0
SMALL
GASTEIGER

@<TRIPOS>ATOM
      1 C         144.4324  139.3176  163.6430 C.3     1  UNL1        0.0294
      2 C         145.3765  140.4797  163.7345 C.3     1  UNL1        0.0666
      3 S         145.0666  141.7565  163.0108 S.3     1  UNL1       -0.0756
      4 C         141.3791  142.9479  163.2307 C.ar    1  UNL1        0.2029
      5 N         141.5152  142.6963  161.7581 N.ar    1  UNL1       -0.1250
      6 N         142.9131  142.2194  161.4966 N.ar    1  UNL1       -0.1220
      7 C         143.6410  142.1762  162.8074 C.ar    1  UNL1        0.1933
      8 N         142.6930  142.6265  163.8791 N.ar    1  UNL1       -0.2860
      9 C         143.0041  142.7360  165.3424 C.3     1  UNL1        0.1341
     10 C         138.5182  141.3858  163.3881 C.3     1  UNL1        0.0556
     11 C         138.8308  142.7173  164.0039 C.ar    1  UNL1        0.1001
     12 N         137.8832  143.5647  164.8003 N.ar    1  UNL1       -0.2085
     13 C         138.6125  144.8064  165.2200 C.ar    1  UNL1        0.2849
     14 O         140.0109  144.7265  164.6831 O.2     1  UNL1       -0.4283
     15 C         140.1457  143.4354  163.9316 C.ar    1  UNL1        0.1964
     16 C         143.8655  138.7115  164.8925 C.3     1  UNL1        0.0730
     17 N         142.3799  138.5896  165.0597 N.3     1  UNL1       -0.2726
     18 C         141.4769  137.6787  164.2821 C.3     1  UNL1        0.0721
     19 C         140.0753  137.8834  164.7758 C.3     1  UNL1        0.0190
     20 C         140.1121  138.9210  165.8585 C.3     1  UNL1        0.0201
     21 C         138.6385  138.9083  166.1380 C.3     1  UNL1        0.0061
     22 C         139.5415  139.8193  166.9156 C.3     1  UNL1        0.0237
     23 C         141.5365  139.3574  166.0340 C.3     1  UNL1        0.0724
     24 C         139.7334  140.8638  167.9748 C.ar    1  UNL1       -0.0225
     25 C         139.4151  140.5478  169.4062 C.ar    1  UNL1       -0.0043
     26 C         139.6070  141.5924  170.4655 C.ar    1  UNL1       -0.0003
     27 C         140.1173  142.9530  170.0933 C.ar    1  UNL1       -0.0000
     28 C         140.4356  143.2690  168.6619 C.ar    1  UNL1       -0.0003
     29 C         140.2437  142.2244  167.6027 C.ar    1  UNL1       -0.0043
@<TRIPOS>BOND
     1    10    11    1
     2    11    12   ar
     3    12    13   ar
     4    13    14   ar
     5    14    15   ar
     6    15     4    1
     7     4     5   ar
     8     5     6   ar
     9     6     7   ar
    10     7     3    1
    11     3     2    1
    12     2     1    1
    13     1    16    1
    14    16    17    1
    15    17    18    1
    16    18    19    1
    17    20    19    1
    18    20    21    1
    19    21    22    1
    20    22    24    1
    21    24    25   ar
    22    25    26   ar
    23    26    27   ar
    24    27    28   ar
    25    28    29   ar
    26    20    23    1
    27     7     8   ar
    28     8     9    1
    29    15    11   ar
    30     8     4   ar
    31    23    17    1
    32    22    20    1
    33    29    24   ar
@<TRIPOS>MOLECULE
*****
 29 33 0 0 0
SMALL
GASTEIGER

@<TRIPOS>ATOM
      1 C         143.7812  144.2491  164.3207 C.3     1  UNL1        0.0294
      2 C         142.8951  145.1298  163.4905 C.3     1  UNL1        0.0666
      3 S         141.4054  145.0605  163.6520 S.3     1  UNL1       -0.0756
      4 C         139.9196  141.5273  164.2641 C.ar    1  UNL1        0.2029
      5 N         139.6291  142.1952  165.5755 N.ar    1  UNL1       -0.1250
      6 N         140.1504  143.6000  165.5058 N.ar    1  UNL1       -0.1220
      7 C         140.7630  143.8004  164.1513 C.ar    1  UNL1        0.1933
      8 N         140.6204  142.5195  163.3839 N.ar    1  UNL1       -0.2860
      9 C         141.0952  142.2738  161.9824 C.3     1  UNL1        0.1341
     10 C         137.6121  140.6099  162.1467 C.3     1  UNL1        0.0556
     11 C         138.5099  139.6937  162.9241 C.ar    1  UNL1        0.1001
     12 N         138.5048  138.1949  162.8647 N.ar    1  UNL1       -0.2085
     13 C         139.5623  137.6902  163.8012 C.ar    1  UNL1        0.2849
     14 O         140.2210  138.8772  164.4394 O.2     1  UNL1       -0.4283
     15 C         139.5706  140.1153  163.8973 C.ar    1  UNL1        0.1964
     16 C         144.4383  143.0505  163.7031 C.3     1  UNL1        0.0730
     17 N         144.2251  141.6893  164.2963 N.3     1  UNL1       -0.2726
     18 C         144.8228  140.4070  163.7981 C.3     1  UNL1        0.0721
     19 C         144.3438  139.2967  164.6858 C.3     1  UNL1        0.0190
     20 C         143.4501  139.8930  165.7326 C.3     1  UNL1        0.0201
     21 C         143.1447  138.6017  166.4320 C.3     1  UNL1        0.0061
     22 C         142.5470  139.8840  166.9302 C.3     1  UNL1        0.0237
     23 C         143.3768  141.3717  165.4919 C.3     1  UNL1        0.0724
     24 C         141.6805  140.6193  167.9093 C.ar    1  UNL1       -0.0225
     25 C         142.0997  141.9670  168.4173 C.ar    1  UNL1       -0.0043
     26 C         141.2332  142.7022  169.3963 C.ar    1  UNL1       -0.0003
     27 C         139.9476  142.0898  169.8674 C.ar    1  UNL1       -0.0000
     28 C         139.5284  140.7421  169.3595 C.ar    1  UNL1       -0.0003
     29 C         140.3948  140.0068  168.3804 C.ar    1  UNL1       -0.0043
@<TRIPOS>BOND
     1    10    11    1
     2    11    12   ar
     3    12    13   ar
     4    13    14   ar
     5    14    15   ar
     6    15     4    1
     7     4     5   ar
     8     5     6   ar
     9     6     7   ar
    10     7     3    1
    11     3     2    1
    12     2     1    1
    13     1    16    1
    14    16    17    1
    15    17    18    1
    16    18    19    1
    17    20    19    1
    18    20    21    1
    19    21    22    1
    20    22    24    1
    21    24    25   ar
    22    25    26   ar
    23    26    27   ar
    24    27    28   ar
    25    28    29   ar
    26    20    23    1
    27     7     8   ar
    28     8     9    1
    29    15    11   ar
    30     8     4   ar
    31    23    17    1
    32    22    20    1
    33    29    24   ar
@<TRIPOS>MOLECULE
*****
 29 33 0 0 0
SMALL
GASTEIGER

@<TRIPOS>ATOM
      1 C         137.6671  143.2707  163.7541 C.3     1  UNL1        0.0294
      2 C         138.2239  144.5043  163.1072 C.3     1  UNL1        0.0666
      3 S         139.7014  144.7619  163.1310 S.3     1  UNL1       -0.0756
      4 C         142.0280  141.6837  163.5523 C.ar    1  UNL1        0.2029
      5 N         142.1649  142.3366  164.8958 N.ar    1  UNL1       -0.1250
      6 N         141.3100  143.5692  164.9015 N.ar    1  UNL1       -0.1220
      7 C         140.6447  143.6780  163.5615 C.ar    1  UNL1        0.1933
      8 N         141.0884  142.5128  162.7277 N.ar    1  UNL1       -0.2860
      9 C         140.6666  142.2268  161.3169 C.3     1  UNL1        0.1341
     10 C         145.2473  141.1493  163.5391 C.3     1  UNL1        0.0556
     11 C         144.1904  140.1775  163.1049 C.ar    1  UNL1        0.1001
     12 N         144.4277  138.7893  162.5884 N.ar    1  UNL1       -0.2085
     13 C         143.0947  138.1770  162.2752 C.ar    1  UNL1        0.2849
     14 O         142.0335  139.1868  162.5982 O.2     1  UNL1       -0.4283
     15 C         142.7107  140.4231  163.1109 C.ar    1  UNL1        0.1964
     16 C         137.3125  142.0788  162.9153 C.3     1  UNL1        0.0730
     17 N         137.9182  140.7407  163.2195 N.3     1  UNL1       -0.2726
     18 C         137.8957  139.5383  162.3229 C.3     1  UNL1        0.0721
     19 C         138.6163  138.4246  163.0231 C.3     1  UNL1        0.0190
     20 C         139.0841  138.9385  164.3524 C.3     1  UNL1        0.0201
     21 C         139.7354  137.6614  164.7939 C.3     1  UNL1        0.0061
     22 C         139.7579  138.8638  165.6905 C.3     1  UNL1        0.0237
     23 C         138.6527  140.3700  164.4738 C.3     1  UNL1        0.0724
     24 C         140.1598  139.5148  166.9807 C.ar    1  UNL1       -0.0225
     25 C         139.1217  139.8316  168.0161 C.ar    1  UNL1       -0.0043
     26 C         139.5237  140.4827  169.3063 C.ar    1  UNL1       -0.0003
     27 C         140.9636  140.8168  169.5610 C.ar    1  UNL1       -0.0000
     28 C         142.0016  140.4999  168.5256 C.ar    1  UNL1       -0.0003
     29 C         141.5997  139.8489  167.2354 C.ar    1  UNL1       -0.0043
@<TRIPOS>BOND
     1    10    11    1
     2    11    12   ar
     3    12    13   ar
     4    13    14   ar
     5    14    15   ar
     6    15     4    1
     7     4     5   ar
     8     5     6   ar
     9     6     7   ar
    10     7     3    1
    11     3     2    1
    12     2     1    1
    13     1    16    1
    14    16    17    1
    15    17    18    1
    16    18    19    1
    17    20    19    1
    18    20    21    1
    19    21    22    1
    20    22    24    1
    21    24    25   ar
    22    25    26   ar
    23    26    27   ar
    24    27    28   ar
    25    28    29   ar
    26    20    23    1
    27     7     8   ar
    28     8     9    1
    29    15    11   ar
    30     8     4   ar
    31    23    17    1
    32    22    20    1
    33    29    24   ar
