@<TRIPOS>MOLECULE
*****
 28 31 0 0 0
SMALL
GASTEIGER

@<TRIPOS>ATOM
      1 C         141.5204  140.1143  167.8895 C.3     1  UNL1        0.2121
      2 C         140.4136  140.0523  168.8999 C.3     1  UNL1        0.0704
      3 C         141.0306  139.8419  170.2509 C.3     1  UNL1        0.1214
      4 C         142.5187  139.7739  170.0754 C.2     1  UNL1        0.2896
      5 N         143.5270  139.5729  171.1675 N.pl3   1  UNL1       -0.2501
      6 N         142.8215  139.9423  168.6159 N.2     1  UNL1       -0.0703
      7 H         143.2288  139.4716  172.1003 H       1  UNL1        0.2881
      8 H         144.4871  139.5421  170.9516 H       1  UNL1        0.2881
      9 C         144.1394  140.4218  164.2431 C.ar    1  UNL1        0.1387
     10 C         143.4800  139.1187  164.5851 C.ar    1  UNL1        0.0367
     11 C         142.6070  139.0162  165.8006 C.ar    1  UNL1        0.0032
     12 C         142.3934  140.2168  166.6740 C.ar    1  UNL1        0.0258
     13 C         143.0529  141.5199  166.3320 C.ar    1  UNL1        0.0032
     14 C         143.9259  141.6224  165.1165 C.ar    1  UNL1        0.0367
     15 C         145.2205  141.8531  162.3635 C.3     1  UNL1        0.2525
     16 O         145.0125  140.5243  163.0276 O.3     1  UNL1       -0.4714
     17 C         140.4019  140.3078  166.9089 C.ar    1  UNL1        0.0256
     18 C         139.3253  139.2707  166.7850 C.ar    1  UNL1        0.0000
     19 C         138.2069  139.4641  165.8045 C.ar    1  UNL1       -0.0002
     20 C         138.1649  140.6947  164.9478 C.ar    1  UNL1        0.0001
     21 C         139.2414  141.7318  165.0717 C.ar    1  UNL1        0.0028
     22 C         140.3600  141.5384  166.0522 C.ar    1  UNL1        0.0001
     23 C         139.1995  142.9624  164.2150 C.ar    1  UNL1        0.0384
     24 C         137.9533  143.3037  163.4531 C.ar    1  UNL1        0.1022
     25 N         137.9113  144.5343  162.5964 N.ar    1  UNL1       -0.2224
     26 C         139.1156  145.4236  162.5016 C.ar    1  UNL1        0.1989
     27 N         140.3618  145.0823  163.2635 N.ar    1  UNL1       -0.2224
     28 C         140.4037  143.8516  164.1203 C.ar    1  UNL1        0.1022
@<TRIPOS>BOND
     1    15    16    1
     2    16     9    1
     3     9    10   ar
     4    10    11   ar
     5    11    12   ar
     6    12     1    1
     7     1    17    1
     8    17    18   ar
     9    18    19   ar
    10    19    20   ar
    11    20    21   ar
    12    21    23    1
    13    23    24   ar
    14    24    25   ar
    15    25    26   ar
    16    26    27   ar
    17    27    28   ar
    18    21    22   ar
    19     1     2    1
    20     2     3    1
    21     3     4    1
    22     4     5    1
    23     4     6    2
    24    12    13   ar
    25    13    14   ar
    26    14     9   ar
    27     6     1    1
    28    22    17   ar
    29    28    23   ar
    30     5     7    1
    31     5     8    1
@<TRIPOS>MOLECULE
*****
 28 31 0 0 0
SMALL
GASTEIGER

@<TRIPOS>ATOM
      1 C         140.1076  140.8392  167.7009 C.3     1  UNL1        0.2121
      2 C         140.4456  141.8674  168.7394 C.3     1  UNL1        0.0704
      3 C         139.7014  141.5204  169.9947 C.3     1  UNL1        0.1214
      4 C         138.9034  140.2777  169.7320 C.2     1  UNL1        0.2896
      5 N         138.0111  139.5788  170.7145 N.pl3   1  UNL1       -0.2501
      6 N         139.1545  139.8567  168.3144 N.2     1  UNL1       -0.0703
      7 H         137.9104  139.9339  171.6272 H       1  UNL1        0.2881
      8 H         137.5261  138.7650  170.4467 H       1  UNL1        0.2881
      9 C         139.6723  138.2578  164.0407 C.ar    1  UNL1        0.1387
     10 C         138.5191  139.0945  164.5099 C.ar    1  UNL1        0.0367
     11 C         138.6642  139.9549  165.7300 C.ar    1  UNL1        0.0032
     12 C         139.9625  139.9787  166.4809 C.ar    1  UNL1        0.0258
     13 C         141.1156  139.1421  166.0117 C.ar    1  UNL1        0.0032
     14 C         140.9705  138.2816  164.7916 C.ar    1  UNL1        0.0367
     15 C         139.1910  138.0212  161.4986 C.3     1  UNL1        0.2525
     16 O         139.5272  137.3974  162.8206 O.3     1  UNL1       -0.4714
     17 C         141.0304  141.6418  166.8324 C.ar    1  UNL1        0.0256
     18 C         142.5066  141.6342  167.0984 C.ar    1  UNL1        0.0000
     19 C         143.4293  142.4367  166.2299 C.ar    1  UNL1       -0.0002
     20 C         142.8759  143.2469  165.0953 C.ar    1  UNL1        0.0001
     21 C         141.3997  143.2546  164.8293 C.ar    1  UNL1        0.0028
     22 C         140.4769  142.4520  165.6978 C.ar    1  UNL1        0.0001
     23 C         140.8463  144.0648  163.6947 C.ar    1  UNL1        0.0384
     24 C         139.3938  144.4391  163.6789 C.ar    1  UNL1        0.1022
     25 N         138.8404  145.2493  162.5443 N.ar    1  UNL1       -0.2224
     26 C         139.7395  145.6852  161.4255 C.ar    1  UNL1        0.1989
     27 N         141.1920  145.3109  161.4413 N.ar    1  UNL1       -0.2224
     28 C         141.7454  144.5007  162.5759 C.ar    1  UNL1        0.1022
@<TRIPOS>BOND
     1    15    16    1
     2    16     9    1
     3     9    10   ar
     4    10    11   ar
     5    11    12   ar
     6    12     1    1
     7     1    17    1
     8    17    18   ar
     9    18    19   ar
    10    19    20   ar
    11    20    21   ar
    12    21    23    1
    13    23    24   ar
    14    24    25   ar
    15    25    26   ar
    16    26    27   ar
    17    27    28   ar
    18    21    22   ar
    19     1     2    1
    20     2     3    1
    21     3     4    1
    22     4     5    1
    23     4     6    2
    24    12    13   ar
    25    13    14   ar
    26    14     9   ar
    27     6     1    1
    28    22    17   ar
    29    28    23   ar
    30     5     7    1
    31     5     8    1
@<TRIPOS>MOLECULE
*****
 28 31 0 0 0
SMALL
GASTEIGER

@<TRIPOS>ATOM
      1 C         141.3794  141.7588  168.1171 C.3     1  UNL1        0.2121
      2 C         140.2502  142.0101  169.0719 C.3     1  UNL1        0.0704
      3 C         140.7994  142.7522  170.2542 C.3     1  UNL1        0.1214
      4 C         142.2680  142.9594  170.0301 C.2     1  UNL1        0.2896
      5 N         143.2123  143.6580  170.9630 N.pl3   1  UNL1       -0.2501
      6 N         142.6265  142.3455  168.7093 N.2     1  UNL1       -0.0703
      7 H         142.8803  144.0301  171.8118 H       1  UNL1        0.2881
      8 H         144.1641  143.7444  170.7264 H       1  UNL1        0.2881
      9 C         144.1040  140.5854  164.7333 C.ar    1  UNL1        0.1387
     10 C         143.8524  142.0350  165.0255 C.ar    1  UNL1        0.0367
     11 C         142.9442  142.4261  166.1534 C.ar    1  UNL1        0.0032
     12 C         142.2876  141.3677  166.9892 C.ar    1  UNL1        0.0258
     13 C         142.5392  139.9181  166.6970 C.ar    1  UNL1        0.0032
     14 C         143.4474  139.5270  165.5691 C.ar    1  UNL1        0.0367
     15 C         144.4970  140.1839  162.1968 C.3     1  UNL1        0.2525
     16 O         145.0122  140.1943  163.6054 O.3     1  UNL1       -0.4714
     17 C         140.3222  141.0903  167.2891 C.ar    1  UNL1        0.0256
     18 C         139.5525  139.9310  167.8491 C.ar    1  UNL1        0.0000
     19 C         138.4954  139.2626  167.0212 C.ar    1  UNL1       -0.0002
     20 C         138.2079  139.7534  165.6332 C.ar    1  UNL1        0.0001
     21 C         138.9776  140.9127  165.0732 C.ar    1  UNL1        0.0028
     22 C         140.0348  141.5811  165.9012 C.ar    1  UNL1        0.0001
     23 C         138.6901  141.4035  163.6853 C.ar    1  UNL1        0.0384
     24 C         139.1490  140.6089  162.4986 C.ar    1  UNL1        0.1022
     25 N         138.8615  141.0997  161.1107 N.ar    1  UNL1       -0.2224
     26 C         138.1151  142.3852  160.9093 C.ar    1  UNL1        0.1989
     27 N         137.6562  143.1798  162.0959 N.ar    1  UNL1       -0.2224
     28 C         137.9437  142.6889  163.4839 C.ar    1  UNL1        0.1022
@<TRIPOS>BOND
     1    15    16    1
     2    16     9    1
     3     9    10   ar
     4    10    11   ar
     5    11    12   ar
     6    12     1    1
     7     1    17    1
     8    17    18   ar
     9    18    19   ar
    10    19    20   ar
    11    20    21   ar
    12    21    23    1
    13    23    24   ar
    14    24    25   ar
    15    25    26   ar
    16    26    27   ar
    17    27    28   ar
    18    21    22   ar
    19     1     2    1
    20     2     3    1
    21     3     4    1
    22     4     5    1
    23     4     6    2
    24    12    13   ar
    25    13    14   ar
    26    14     9   ar
    27     6     1    1
    28    22    17   ar
    29    28    23   ar
    30     5     7    1
    31     5     8    1
@<TRIPOS>MOLECULE
*****
 28 31 0 0 0
SMALL
GASTEIGER

@<TRIPOS>ATOM
      1 C         141.7139  141.3995  167.9354 C.3     1  UNL1        0.2121
      2 C         141.7747  140.3542  169.0094 C.3     1  UNL1        0.0704
      3 C         142.8782  140.7252  169.9554 C.3     1  UNL1        0.1214
      4 C         143.4993  141.9998  169.4660 C.2     1  UNL1        0.2896
      5 N         144.6398  142.7295  170.1116 N.pl3   1  UNL1       -0.2501
      6 N         142.7798  142.4166  168.2176 N.2     1  UNL1       -0.0703
      7 H         145.0486  142.3748  170.9340 H       1  UNL1        0.2881
      8 H         144.9795  143.5631  169.7130 H       1  UNL1        0.2881
      9 C         140.8241  144.0119  164.3810 C.ar    1  UNL1        0.1387
     10 C         142.1497  143.3183  164.4889 C.ar    1  UNL1        0.0367
     11 C         142.4463  142.4476  165.6738 C.ar    1  UNL1        0.0032
     12 C         141.4173  142.2703  166.7506 C.ar    1  UNL1        0.0258
     13 C         140.0917  142.9638  166.6426 C.ar    1  UNL1        0.0032
     14 C         139.7951  143.8346  165.4578 C.ar    1  UNL1        0.0367
     15 C         139.1110  145.0728  162.7410 C.3     1  UNL1        0.2525
     16 O         140.5275  144.8826  163.1962 O.3     1  UNL1       -0.4714
     17 C         140.5860  140.5645  167.4056 C.ar    1  UNL1        0.0256
     18 C         139.4692  140.1479  168.3161 C.ar    1  UNL1        0.0000
     19 C         138.3414  139.3130  167.7863 C.ar    1  UNL1       -0.0002
     20 C         138.3304  138.8946  166.3459 C.ar    1  UNL1        0.0001
     21 C         139.4471  139.3112  165.4353 C.ar    1  UNL1        0.0028
     22 C         140.5750  140.1461  165.9652 C.ar    1  UNL1        0.0001
     23 C         139.4361  138.8928  163.9949 C.ar    1  UNL1        0.0384
     24 C         138.3462  139.3727  163.0828 C.ar    1  UNL1        0.1022
     25 N         138.3352  138.9543  161.6424 N.ar    1  UNL1       -0.2224
     26 C         139.4140  138.0559  161.1140 C.ar    1  UNL1        0.1989
     27 N         140.5039  137.5760  162.0261 N.ar    1  UNL1       -0.2224
     28 C         140.5149  137.9944  163.4666 C.ar    1  UNL1        0.1022
@<TRIPOS>BOND
     1    15    16    1
     2    16     9    1
     3     9    10   ar
     4    10    11   ar
     5    11    12   ar
     6    12     1    1
     7     1    17    1
     8    17    18   ar
     9    18    19   ar
    10    19    20   ar
    11    20    21   ar
    12    21    23    1
    13    23    24   ar
    14    24    25   ar
    15    25    26   ar
    16    26    27   ar
    17    27    28   ar
    18    21    22   ar
    19     1     2    1
    20     2     3    1
    21     3     4    1
    22     4     5    1
    23     4     6    2
    24    12    13   ar
    25    13    14   ar
    26    14     9   ar
    27     6     1    1
    28    22    17   ar
    29    28    23   ar
    30     5     7    1
    31     5     8    1
@<TRIPOS>MOLECULE
*****
 28 31 0 0 0
SMALL
GASTEIGER

@<TRIPOS>ATOM
      1 C         140.8961  141.3469  167.9492 C.3     1  UNL1        0.2121
      2 C         140.7651  140.2191  168.9294 C.3     1  UNL1        0.0704
      3 C         140.2119  140.7774  170.2071 C.3     1  UNL1        0.1214
      4 C         140.0010  142.2502  170.0164 C.2     1  UNL1        0.2896
      5 N         139.4618  143.2035  171.0413 N.pl3   1  UNL1       -0.2501
      6 N         140.4238  142.6022  168.6210 N.2     1  UNL1       -0.0703
      7 H         139.2104  142.8753  171.9348 H       1  UNL1        0.2881
      8 H         139.3593  144.1575  170.8205 H       1  UNL1        0.2881
      9 C         141.6168  144.0617  164.4335 C.ar    1  UNL1        0.1387
     10 C         142.7614  143.3143  165.0509 C.ar    1  UNL1        0.0367
     11 C         142.5212  142.4094  166.2228 C.ar    1  UNL1        0.0032
     12 C         141.1364  142.2519  166.7773 C.ar    1  UNL1        0.0258
     13 C         139.9918  142.9993  166.1599 C.ar    1  UNL1        0.0032
     14 C         140.2321  143.9042  164.9880 C.ar    1  UNL1        0.0367
     15 C         140.6960  145.5050  162.4793 C.3     1  UNL1        0.2525
     16 O         141.8571  144.9667  163.2616 O.3     1  UNL1       -0.4714
     17 C         141.4186  140.2808  167.0324 C.ar    1  UNL1        0.0256
     18 C         142.6617  139.5234  167.3945 C.ar    1  UNL1        0.0000
     19 C         143.1842  138.4574  166.4778 C.ar    1  UNL1       -0.0002
     20 C         142.4636  138.1488  165.1989 C.ar    1  UNL1        0.0001
     21 C         141.2206  138.9061  164.8368 C.ar    1  UNL1        0.0028
     22 C         140.6981  139.9722  165.7536 C.ar    1  UNL1        0.0001
     23 C         140.5001  138.5975  163.5579 C.ar    1  UNL1        0.0384
     24 C         139.0252  138.3249  163.5750 C.ar    1  UNL1        0.1022
     25 N         138.3046  138.0162  162.2961 N.ar    1  UNL1       -0.2224
     26 C         139.0590  137.9802  161.0000 C.ar    1  UNL1        0.1989
     27 N         140.5339  138.2528  160.9829 N.ar    1  UNL1       -0.2224
     28 C         141.2545  138.5615  162.2619 C.ar    1  UNL1        0.1022
@<TRIPOS>BOND
     1    15    16    1
     2    16     9    1
     3     9    10   ar
     4    10    11   ar
     5    11    12   ar
     6    12     1    1
     7     1    17    1
     8    17    18   ar
     9    18    19   ar
    10    19    20   ar
    11    20    21   ar
    12    21    23    1
    13    23    24   ar
    14    24    25   ar
    15    25    26   ar
    16    26    27   ar
    17    27    28   ar
    18    21    22   ar
    19     1     2    1
    20     2     3    1
    21     3     4    1
    22     4     5    1
    23     4     6    2
    24    12    13   ar
    25    13    14   ar
    26    14     9   ar
    27     6     1    1
    28    22    17   ar
    29    28    23   ar
    30     5     7    1
    31     5     8    1
@<TRIPOS>MOLECULE
*****
 28 31 0 0 0
SMALL
GASTEIGER

@<TRIPOS>ATOM
      1 C         140.9180  140.9844  168.2195 C.3     1  UNL1        0.2121
      2 C         140.4612  139.9413  169.1959 C.3     1  UNL1        0.0704
      3 C         140.9021  140.3641  170.5659 C.3     1  UNL1        0.1214
      4 C         141.6314  141.6684  170.4362 C.2     1  UNL1        0.2896
      5 N         142.2434  142.4518  171.5595 N.pl3   1  UNL1       -0.2501
      6 N         141.6413  142.0518  168.9861 N.2     1  UNL1       -0.0703
      7 H         142.1846  142.1159  172.4831 H       1  UNL1        0.2881
      8 H         142.7039  143.3017  171.3732 H       1  UNL1        0.2881
      9 C         141.8768  143.5567  164.6538 C.ar    1  UNL1        0.1387
     10 C         142.9734  142.8186  165.3628 C.ar    1  UNL1        0.0367
     11 C         142.6538  141.9612  166.5514 C.ar    1  UNL1        0.0032
     12 C         141.2376  141.8418  167.0310 C.ar    1  UNL1        0.0258
     13 C         140.1410  142.5799  166.3220 C.ar    1  UNL1        0.0032
     14 C         140.4606  143.4373  165.1334 C.ar    1  UNL1        0.0367
     15 C         143.6092  144.8507  163.2136 C.3     1  UNL1        0.2525
     16 O         142.1964  144.4141  163.4652 O.3     1  UNL1       -0.4714
     17 C         140.2616  140.0963  167.2044 C.ar    1  UNL1        0.0256
     18 C         138.8721  139.5841  167.4429 C.ar    1  UNL1        0.0000
     19 C         138.2157  138.6960  166.4278 C.ar    1  UNL1       -0.0002
     20 C         138.9488  138.3201  165.1744 C.ar    1  UNL1        0.0001
     21 C         140.3382  138.8323  164.9359 C.ar    1  UNL1        0.0028
     22 C         140.9947  139.7204  165.9510 C.ar    1  UNL1        0.0001
     23 C         141.0713  138.4564  163.6824 C.ar    1  UNL1        0.0384
     24 C         140.3051  138.0493  162.4588 C.ar    1  UNL1        0.1022
     25 N         141.0381  137.6734  161.2053 N.ar    1  UNL1       -0.2224
     26 C         142.5376  137.7045  161.1754 C.ar    1  UNL1        0.1989
     27 N         143.3039  138.1117  162.3990 N.ar    1  UNL1       -0.2224
     28 C         142.5707  138.4876  163.6525 C.ar    1  UNL1        0.1022
@<TRIPOS>BOND
     1    15    16    1
     2    16     9    1
     3     9    10   ar
     4    10    11   ar
     5    11    12   ar
     6    12     1    1
     7     1    17    1
     8    17    18   ar
     9    18    19   ar
    10    19    20   ar
    11    20    21   ar
    12    21    23    1
    13    23    24   ar
    14    24    25   ar
    15    25    26   ar
    16    26    27   ar
    17    27    28   ar
    18    21    22   ar
    19     1     2    1
    20     2     3    1
    21     3     4    1
    22     4     5    1
    23     4     6    2
    24    12    13   ar
    25    13    14   ar
    26    14     9   ar
    27     6     1    1
    28    22    17   ar
    29    28    23   ar
    30     5     7    1
    31     5     8    1
@<TRIPOS>MOLECULE
*****
 28 31 0 0 0
SMALL
GASTEIGER

@<TRIPOS>ATOM
      1 C         140.2834  138.9880  164.2427 C.3     1  UNL1        0.2121
      2 C         140.5428  137.5811  164.6935 C.3     1  UNL1        0.0704
      3 C         141.2806  136.8716  163.5969 C.3     1  UNL1        0.1214
      4 C         141.4771  137.8401  162.4685 C.2     1  UNL1        0.2896
      5 N         142.1685  137.5512  161.1690 N.pl3   1  UNL1       -0.2501
      6 N         140.8609  139.1481  162.8676 N.2     1  UNL1       -0.0703
      7 H         142.5429  136.6567  160.9989 H       1  UNL1        0.2881
      8 H         142.2480  138.2561  160.4864 H       1  UNL1        0.2881
      9 C         139.0910  143.2968  163.7305 C.ar    1  UNL1        0.1387
     10 C         138.0449  142.2219  163.7132 C.ar    1  UNL1        0.0367
     11 C         138.4424  140.7857  163.8840 C.ar    1  UNL1        0.0032
     12 C         139.8860  140.4243  164.0720 C.ar    1  UNL1        0.0258
     13 C         140.9320  141.4991  164.0892 C.ar    1  UNL1        0.0032
     14 C         140.5346  142.9354  163.9185 C.ar    1  UNL1        0.0367
     15 C         139.2870  145.5486  162.4496 C.3     1  UNL1        0.2525
     16 O         138.6935  144.7330  163.5597 O.3     1  UNL1       -0.4714
     17 C         139.6229  139.1282  165.5822 C.ar    1  UNL1        0.0256
     18 C         138.2720  138.5210  165.8195 C.ar    1  UNL1        0.0000
     19 C         137.6116  138.6612  167.1588 C.ar    1  UNL1       -0.0002
     20 C         138.3020  139.4086  168.2610 C.ar    1  UNL1        0.0001
     21 C         139.6528  140.0158  168.0237 C.ar    1  UNL1        0.0028
     22 C         140.3133  139.8756  166.6843 C.ar    1  UNL1        0.0001
     23 C         140.3432  140.7632  169.1259 C.ar    1  UNL1        0.0384
     24 C         141.2296  141.9289  168.8009 C.ar    1  UNL1        0.1022
     25 N         141.9200  142.6763  169.9030 N.ar    1  UNL1       -0.2224
     26 C         141.7240  142.2580  171.3302 C.ar    1  UNL1        0.1989
     27 N         140.8377  141.0923  171.6552 N.ar    1  UNL1       -0.2224
     28 C         140.1472  140.3449  170.5530 C.ar    1  UNL1        0.1022
@<TRIPOS>BOND
     1    15    16    1
     2    16     9    1
     3     9    10   ar
     4    10    11   ar
     5    11    12   ar
     6    12     1    1
     7     1    17    1
     8    17    18   ar
     9    18    19   ar
    10    19    20   ar
    11    20    21   ar
    12    21    23    1
    13    23    24   ar
    14    24    25   ar
    15    25    26   ar
    16    26    27   ar
    17    27    28   ar
    18    21    22   ar
    19     1     2    1
    20     2     3    1
    21     3     4    1
    22     4     5    1
    23     4     6    2
    24    12    13   ar
    25    13    14   ar
    26    14     9   ar
    27     6     1    1
    28    22    17   ar
    29    28    23   ar
    30     5     7    1
    31     5     8    1
@<TRIPOS>MOLECULE
*****
 28 31 0 0 0
SMALL
GASTEIGER

@<TRIPOS>ATOM
      1 C         139.9238  140.9976  167.7443 C.3     1  UNL1        0.2121
      2 C         139.4714  139.9258  168.6912 C.3     1  UNL1        0.0704
      3 C         139.4427  140.5098  170.0726 C.3     1  UNL1        0.1214
      4 C         139.8773  141.9424  169.9794 C.2     1  UNL1        0.2896
      5 N         139.9941  142.9045  171.1242 N.pl3   1  UNL1       -0.2501
      6 N         140.1747  142.2439  168.5404 N.2     1  UNL1       -0.0703
      7 H         139.7753  142.6111  172.0381 H       1  UNL1        0.2881
      8 H         140.2896  143.8295  170.9616 H       1  UNL1        0.2881
      9 C         141.1785  143.5424  164.2515 C.ar    1  UNL1        0.1387
     10 C         142.1967  143.0962  165.2584 C.ar    1  UNL1        0.0367
     11 C         141.7785  142.2479  166.4227 C.ar    1  UNL1        0.0032
     12 C         140.3420  141.8458  166.5800 C.ar    1  UNL1        0.0258
     13 C         139.3238  142.2920  165.5730 C.ar    1  UNL1        0.0032
     14 C         139.7420  143.1403  164.4088 C.ar    1  UNL1        0.0367
     15 C         140.7010  145.4912  162.6010 C.3     1  UNL1        0.2525
     16 O         141.5967  144.3906  163.0872 O.3     1  UNL1       -0.4714
     17 C         139.7604  139.9286  166.7047 C.ar    1  UNL1        0.0256
     18 C         138.5345  139.0641  166.7041 C.ar    1  UNL1        0.0000
     19 C         138.3711  137.9952  165.6647 C.ar    1  UNL1       -0.0002
     20 C         139.4335  137.7908  164.6257 C.ar    1  UNL1        0.0001
     21 C         140.6593  138.6552  164.6262 C.ar    1  UNL1        0.0028
     22 C         140.8227  139.7241  165.6657 C.ar    1  UNL1        0.0001
     23 C         141.7217  138.4507  163.5872 C.ar    1  UNL1        0.0384
     24 C         141.3877  137.7583  162.2991 C.ar    1  UNL1        0.1022
     25 N         142.4500  137.5538  161.2601 N.ar    1  UNL1       -0.2224
     26 C         143.8465  138.0418  161.5092 C.ar    1  UNL1        0.1989
     27 N         144.1805  138.7342  162.7972 N.ar    1  UNL1       -0.2224
     28 C         143.1180  138.9387  163.8362 C.ar    1  UNL1        0.1022
@<TRIPOS>BOND
     1    15    16    1
     2    16     9    1
     3     9    10   ar
     4    10    11   ar
     5    11    12   ar
     6    12     1    1
     7     1    17    1
     8    17    18   ar
     9    18    19   ar
    10    19    20   ar
    11    20    21   ar
    12    21    23    1
    13    23    24   ar
    14    24    25   ar
    15    25    26   ar
    16    26    27   ar
    17    27    28   ar
    18    21    22   ar
    19     1     2    1
    20     2     3    1
    21     3     4    1
    22     4     5    1
    23     4     6    2
    24    12    13   ar
    25    13    14   ar
    26    14     9   ar
    27     6     1    1
    28    22    17   ar
    29    28    23   ar
    30     5     7    1
    31     5     8    1
@<TRIPOS>MOLECULE
*****
 28 31 0 0 0
SMALL
GASTEIGER

@<TRIPOS>ATOM
      1 C         141.3700  141.1071  168.0563 C.3     1  UNL1        0.2121
      2 C         142.5655  140.9691  168.9517 C.3     1  UNL1        0.0704
      3 C         142.2069  141.5348  170.2940 C.3     1  UNL1        0.1214
      4 C         140.7899  142.0224  170.2280 C.2     1  UNL1        0.2896
      5 N         140.0245  142.6619  171.3483 N.pl3   1  UNL1       -0.2501
      6 N         140.2727  141.7580  168.8450 N.2     1  UNL1       -0.0703
      7 H         140.4528  142.7934  172.2249 H       1  UNL1        0.2881
      8 H         139.0938  142.9503  171.2070 H       1  UNL1        0.2881
      9 C         138.3395  141.1130  164.7297 C.ar    1  UNL1        0.1387
     10 C         139.0661  142.3764  165.0846 C.ar    1  UNL1        0.0367
     11 C         140.0762  142.3744  166.1935 C.ar    1  UNL1        0.0032
     12 C         140.3599  141.1091  166.9474 C.ar    1  UNL1        0.0258
     13 C         139.6334  139.8457  166.5925 C.ar    1  UNL1        0.0032
     14 C         138.6232  139.8477  165.4836 C.ar    1  UNL1        0.0367
     15 C         137.7557  140.8013  162.2174 C.3     1  UNL1        0.2525
     16 O         137.3294  141.1150  163.6208 O.3     1  UNL1       -0.4714
     17 C         142.2562  140.4566  167.0357 C.ar    1  UNL1        0.0256
     18 C         142.7704  139.0665  167.2659 C.ar    1  UNL1        0.0000
     19 C         143.6565  138.4160  166.2454 C.ar    1  UNL1       -0.0002
     20 C         144.0285  139.1557  164.9946 C.ar    1  UNL1        0.0001
     21 C         143.5144  140.5458  164.7643 C.ar    1  UNL1        0.0028
     22 C         142.6282  141.1963  165.7849 C.ar    1  UNL1        0.0001
     23 C         143.8864  141.2854  163.5135 C.ar    1  UNL1        0.0384
     24 C         144.2882  142.7287  163.5871 C.ar    1  UNL1        0.1022
     25 N         144.6602  143.4684  162.3363 N.ar    1  UNL1       -0.2224
     26 C         144.6303  142.7648  161.0119 C.ar    1  UNL1        0.1989
     27 N         144.2284  141.3215  160.9383 N.ar    1  UNL1       -0.2224
     28 C         143.8564  140.5818  162.1892 C.ar    1  UNL1        0.1022
@<TRIPOS>BOND
     1    15    16    1
     2    16     9    1
     3     9    10   ar
     4    10    11   ar
     5    11    12   ar
     6    12     1    1
     7     1    17    1
     8    17    18   ar
     9    18    19   ar
    10    19    20   ar
    11    20    21   ar
    12    21    23    1
    13    23    24   ar
    14    24    25   ar
    15    25    26   ar
    16    26    27   ar
    17    27    28   ar
    18    21    22   ar
    19     1     2    1
    20     2     3    1
    21     3     4    1
    22     4     5    1
    23     4     6    2
    24    12    13   ar
    25    13    14   ar
    26    14     9   ar
    27     6     1    1
    28    22    17   ar
    29    28    23   ar
    30     5     7    1
    31     5     8    1
