@<TRIPOS>MOLECULE
*****
 35 38 0 0 0
SMALL
GASTEIGER

@<TRIPOS>ATOM
      1 C         141.0330  140.0964  165.5134 C.3     1  UNL1        0.1200
      2 C         141.0176  138.5989  165.5979 C.3     1  UNL1        0.2250
      3 O         140.1991  137.8013  164.6264 O.3     1  UNL1       -0.4740
      4 C         139.3961  138.5012  163.5703 C.ar    1  UNL1        0.1346
      5 C         138.5777  137.7035  162.5987 C.ar    1  UNL1        0.0366
      6 C         137.7747  138.4034  161.5426 C.ar    1  UNL1        0.0031
      7 C         137.7901  139.9009  161.4581 C.ar    1  UNL1       -0.0001
      8 C         138.6085  140.6986  162.4297 C.ar    1  UNL1       -0.0009
      9 C         139.4115  139.9987  163.4857 C.ar    1  UNL1        0.0136
     10 C         140.2299  140.7963  164.4573 C.3     1  UNL1        0.0528
     11 C         138.6239  142.1961  162.3451 C.ar    1  UNL1        0.0026
     12 C         137.6748  143.0042  163.1795 C.ar    1  UNL1        0.0206
     13 C         137.6903  144.5018  163.0949 C.ar    1  UNL1        0.0985
     14 N         138.6548  145.1912  162.1760 N.ar    1  UNL1       -0.2457
     15 CA        139.6039  144.3830  161.3416 C.ar    1  UNL1        0.0885
     16 C         139.5885  142.8855  161.4262 C.ar    1  UNL1        0.0172
     17 C         140.5684  145.0725  160.4227 C.3     1  UNL1        0.1829
     18 O         141.9977  145.2585  160.8381 O.3     1  UNL1       -0.3760
     19 H         142.0379  145.8609  161.5973 H       1  UNL1        0.2110
     20 O         139.8170  141.0192  168.0960 O.2     1  UNL1       -0.2701
     21 C         141.2434  141.3555  167.7763 C.2     1  UNL1        0.2474
     22 N         141.8514  140.8941  166.4850 N.am    1  UNL1       -0.2986
     23 H         142.7876  141.1148  166.2751 H       1  UNL1        0.1498
     24 C         142.0619  142.1532  168.7478 C.ar    1  UNL1        0.0727
     25 C         141.3837  143.0492  169.7414 C.ar    1  UNL1        0.0109
     26 C         142.2021  143.8469  170.7129 C.ar    1  UNL1        0.0579
     27 C         143.6987  143.7485  170.6909 C.ar    1  UNL1        0.2251
     28 N         144.3769  142.8524  169.6973 N.ar    1  UNL1       -0.2100
     29 C         143.5585  142.0548  168.7258 C.ar    1  UNL1        0.1065
     30 O         144.5172  144.5462  171.6624 O.3     1  UNL1       -0.4509
     31 C         145.9146  144.9580  171.3052 C.3     1  UNL1        0.3095
     32 C         146.5721  146.0915  172.0350 C.3     1  UNL1        0.4381
     33 F         147.2298  147.2250  172.7649 F       1  UNL1       -0.1663
     34 F         147.4147  145.1120  172.7970 F       1  UNL1       -0.1663
     35 F         145.7296  147.0709  171.2730 F       1  UNL1       -0.1663
@<TRIPOS>BOND
     1    20    21    2
     2    21    22   am
     3     1    22    1
     4     1     2    1
     5     2     3    1
     6     3     4    1
     7     4     5   ar
     8     5     6   ar
     9     6     7   ar
    10     7     8   ar
    11     8    11    1
    12    11    12   ar
    13    12    13   ar
    14    13    14   ar
    15    14    15   ar
    16    15    17    1
    17    17    18    1
    18    15    16   ar
    19     8     9   ar
    20     9    10    1
    21    21    24    1
    22    24    25   ar
    23    25    26   ar
    24    26    27   ar
    25    27    30    1
    26    30    31    1
    27    31    32    1
    28    32    33    1
    29    32    34    1
    30    32    35    1
    31    27    28   ar
    32    28    29   ar
    33    10     1    1
    34    29    24   ar
    35     9     4   ar
    36    16    11   ar
    37    22    23    1
    38    18    19    1
@<TRIPOS>MOLECULE
*****
 35 38 0 0 0
SMALL
GASTEIGER

@<TRIPOS>ATOM
      1 C         141.3718  138.9492  163.9118 C.3     1  UNL1        0.1200
      2 C         141.5947  137.6626  163.1735 C.3     1  UNL1        0.2250
      3 O         142.1645  137.6832  161.7861 O.3     1  UNL1       -0.4740
      4 C         142.5114  138.9902  161.1370 C.ar    1  UNL1        0.1346
      5 C         143.0811  139.0107  159.7495 C.ar    1  UNL1        0.0366
      6 C         143.4280  140.3177  159.1004 C.ar    1  UNL1        0.0031
      7 C         143.2051  141.6043  159.8388 C.ar    1  UNL1       -0.0001
      8 C         142.6353  141.5838  161.2262 C.ar    1  UNL1       -0.0009
      9 C         142.2884  140.2767  161.8753 C.ar    1  UNL1        0.0136
     10 C         141.7187  140.2562  163.2627 C.3     1  UNL1        0.0528
     11 C         142.4124  142.8703  161.9645 C.ar    1  UNL1        0.0026
     12 C         143.5133  143.4579  162.7967 C.ar    1  UNL1        0.0206
     13 C         143.2904  144.7445  163.5350 C.ar    1  UNL1        0.0985
     14 N         141.9665  145.4434  163.4411 N.ar    1  UNL1       -0.2457
     15 CA        140.8656  144.8558  162.6088 C.ar    1  UNL1        0.0885
     16 C         141.0885  143.5693  161.8705 C.ar    1  UNL1        0.0172
     17 C         139.5417  145.5548  162.5148 C.3     1  UNL1        0.1829
     18 O         139.2588  146.4737  161.3635 O.3     1  UNL1       -0.3760
     19 H         139.8460  147.2442  161.4129 H       1  UNL1        0.2110
     20 O         138.4560  139.5066  164.3443 O.2     1  UNL1       -0.2701
     21 C         139.3442  139.2074  165.5155 C.2     1  UNL1        0.2474
     22 N         140.8021  138.9287  165.2993 N.am    1  UNL1       -0.2986
     23 H         141.3850  138.7324  166.0679 H       1  UNL1        0.1498
     24 C         138.7744  139.1869  166.9030 C.ar    1  UNL1        0.0727
     25 C         137.5395  138.3871  167.1949 C.ar    1  UNL1        0.0109
     26 C         136.9698  138.3667  168.5823 C.ar    1  UNL1        0.0579
     27 C         137.6349  139.1461  169.6778 C.ar    1  UNL1        0.2251
     28 N         138.8698  139.9459  169.3859 N.ar    1  UNL1       -0.2100
     29 C         139.4395  139.9663  167.9985 C.ar    1  UNL1        0.1065
     30 O         137.0651  139.1256  171.0653 O.3     1  UNL1       -0.4509
     31 C         135.8707  138.2721  171.3730 C.3     1  UNL1        0.3095
     32 C         135.8677  137.3978  172.5918 C.3     1  UNL1        0.4381
     33 F         135.8647  136.5234  173.8107 F       1  UNL1       -0.1663
     34 F         134.4642  137.8294  172.8980 F       1  UNL1       -0.1663
     35 F         137.2712  136.9662  172.2856 F       1  UNL1       -0.1663
@<TRIPOS>BOND
     1    20    21    2
     2    21    22   am
     3     1    22    1
     4     1     2    1
     5     2     3    1
     6     3     4    1
     7     4     5   ar
     8     5     6   ar
     9     6     7   ar
    10     7     8   ar
    11     8    11    1
    12    11    12   ar
    13    12    13   ar
    14    13    14   ar
    15    14    15   ar
    16    15    17    1
    17    17    18    1
    18    15    16   ar
    19     8     9   ar
    20     9    10    1
    21    21    24    1
    22    24    25   ar
    23    25    26   ar
    24    26    27   ar
    25    27    30    1
    26    30    31    1
    27    31    32    1
    28    32    33    1
    29    32    34    1
    30    32    35    1
    31    27    28   ar
    32    28    29   ar
    33    10     1    1
    34    29    24   ar
    35     9     4   ar
    36    16    11   ar
    37    22    23    1
    38    18    19    1
@<TRIPOS>MOLECULE
*****
 35 38 0 0 0
SMALL
GASTEIGER

@<TRIPOS>ATOM
      1 C         139.6874  141.5170  160.3115 C.3     1  UNL1        0.1200
      2 C         138.4173  142.2322  159.9573 C.3     1  UNL1        0.2250
      3 O         137.7252  143.0828  160.9808 O.3     1  UNL1       -0.4740
      4 C         138.3032  143.2182  162.3583 C.ar    1  UNL1        0.1346
      5 C         137.6110  144.0689  163.3817 C.ar    1  UNL1        0.0366
      6 C         138.1889  144.2044  164.7593 C.ar    1  UNL1        0.0031
      7 C         139.4591  143.4892  165.1134 C.ar    1  UNL1       -0.0001
      8 C         140.1512  142.6386  164.0900 C.ar    1  UNL1       -0.0009
      9 C         139.5732  142.5031  162.7124 C.ar    1  UNL1        0.0136
     10 C         140.2654  141.6525  161.6890 C.3     1  UNL1        0.0528
     11 C         141.4213  141.9235  164.4441 C.ar    1  UNL1        0.0026
     12 C         141.3653  140.5857  165.1203 C.ar    1  UNL1        0.0206
     13 C         142.6355  139.8706  165.4745 C.ar    1  UNL1        0.0985
     14 N         143.9615  140.4932  165.1523 N.ar    1  UNL1       -0.2457
     15 CA        144.0175  141.8310  164.4761 C.ar    1  UNL1        0.0885
     16 C         142.7475  142.5461  164.1220 C.ar    1  UNL1        0.0172
     17 C         145.3437  142.4536  164.1540 C.3     1  UNL1        0.1829
     18 O         146.2403  141.8215  163.1310 O.3     1  UNL1       -0.3760
     19 H         146.5407  140.9576  163.4539 H       1  UNL1        0.2110
     20 O         139.3328  138.5383  160.3489 O.2     1  UNL1       -0.2701
     21 C         140.2023  139.1771  159.3068 C.2     1  UNL1        0.2474
     22 N         140.3796  140.6664  159.2880 N.am    1  UNL1       -0.2986
     23 H         140.9503  141.0856  158.6041 H       1  UNL1        0.1498
     24 C         140.8945  138.3264  158.2833 C.ar    1  UNL1        0.0727
     25 C         140.1120  137.7284  157.1519 C.ar    1  UNL1        0.0109
     26 C         140.8042  136.8778  156.1286 C.ar    1  UNL1        0.0579
     27 C         142.2789  136.6252  156.2366 C.ar    1  UNL1        0.2251
     28 N         143.0613  137.2232  157.3680 N.ar    1  UNL1       -0.2100
     29 C         142.3691  138.0738  158.3914 C.ar    1  UNL1        0.1065
     30 O         142.9711  135.7746  155.2132 O.3     1  UNL1       -0.4509
     31 C         142.4948  134.3760  154.9543 C.3     1  UNL1        0.3095
     32 C         142.5890  133.3396  156.0346 C.3     1  UNL1        0.4381
     33 F         142.6831  132.3033  157.1150 F       1  UNL1       -0.1663
     34 F         141.1898  132.8939  155.7290 F       1  UNL1       -0.1663
     35 F         143.9882  133.7854  156.3403 F       1  UNL1       -0.1663
@<TRIPOS>BOND
     1    20    21    2
     2    21    22   am
     3     1    22    1
     4     1     2    1
     5     2     3    1
     6     3     4    1
     7     4     5   ar
     8     5     6   ar
     9     6     7   ar
    10     7     8   ar
    11     8    11    1
    12    11    12   ar
    13    12    13   ar
    14    13    14   ar
    15    14    15   ar
    16    15    17    1
    17    17    18    1
    18    15    16   ar
    19     8     9   ar
    20     9    10    1
    21    21    24    1
    22    24    25   ar
    23    25    26   ar
    24    26    27   ar
    25    27    30    1
    26    30    31    1
    27    31    32    1
    28    32    33    1
    29    32    34    1
    30    32    35    1
    31    27    28   ar
    32    28    29   ar
    33    10     1    1
    34    29    24   ar
    35     9     4   ar
    36    16    11   ar
    37    22    23    1
    38    18    19    1
@<TRIPOS>MOLECULE
*****
 35 38 0 0 0
SMALL
GASTEIGER

@<TRIPOS>ATOM
      1 C         142.4726  139.5982  163.7381 C.3     1  UNL1        0.1200
      2 C         143.3966  139.0474  164.7835 C.3     1  UNL1        0.2250
      3 O         143.3606  139.5945  166.1796 O.3     1  UNL1       -0.4740
      4 C         142.4007  140.6925  166.5304 C.ar    1  UNL1        0.1346
      5 C         142.3647  141.2396  167.9267 C.ar    1  UNL1        0.0366
      6 C         141.4048  142.3375  168.2774 C.ar    1  UNL1        0.0031
      7 C         140.4808  142.8884  167.2320 C.ar    1  UNL1       -0.0001
      8 C         140.5168  142.3412  165.8358 C.ar    1  UNL1       -0.0009
      9 C         141.4767  141.2433  165.4850 C.ar    1  UNL1        0.0136
     10 C         141.5127  140.6961  164.0889 C.3     1  UNL1        0.0528
     11 C         139.5929  142.8920  164.7904 C.ar    1  UNL1        0.0026
     12 C         138.2713  142.2305  164.5337 C.ar    1  UNL1        0.0206
     13 C         137.3473  142.7814  163.4883 C.ar    1  UNL1        0.0985
     14 N         137.7449  143.9937  162.6996 N.ar    1  UNL1       -0.2457
     15 CA        139.0665  144.6553  162.9563 C.ar    1  UNL1        0.0885
     16 C         139.9904  144.1045  164.0017 C.ar    1  UNL1        0.0172
     17 C         139.4641  145.8677  162.1675 C.3     1  UNL1        0.1829
     18 O         140.7174  146.6131  162.5188 O.3     1  UNL1       -0.3760
     19 H         140.6194  147.0152  163.3961 H       1  UNL1        0.2110
     20 O         143.7735  141.1748  161.5422 O.2     1  UNL1       -0.2701
     21 C         143.1590  139.8394  161.2440 C.2     1  UNL1        0.2474
     22 N         142.5086  139.0511  162.3419 N.am    1  UNL1       -0.2986
     23 H         142.1053  138.1746  162.1461 H       1  UNL1        0.1498
     24 C         143.1950  139.2922  159.8477 C.ar    1  UNL1        0.0727
     25 C         142.6466  137.9254  159.5635 C.ar    1  UNL1        0.0109
     26 C         142.6825  137.3783  158.1673 C.ar    1  UNL1        0.0579
     27 C         143.2669  138.1981  157.0553 C.ar    1  UNL1        0.2251
     28 N         143.8153  139.5650  157.3396 N.ar    1  UNL1       -0.2100
     29 C         143.7794  140.1120  158.7358 C.ar    1  UNL1        0.1065
     30 O         143.3029  137.6510  155.6591 O.3     1  UNL1       -0.4509
     31 C         144.1612  136.4627  155.3411 C.3     1  UNL1        0.3095
     32 C         143.5578  135.0899  155.3049 C.3     1  UNL1        0.4381
     33 F         142.9543  133.7170  155.2686 F       1  UNL1       -0.1663
     34 F         142.9434  135.3951  153.9709 F       1  UNL1       -0.1663
     35 F         144.1721  134.7847  156.6388 F       1  UNL1       -0.1663
@<TRIPOS>BOND
     1    20    21    2
     2    21    22   am
     3     1    22    1
     4     1     2    1
     5     2     3    1
     6     3     4    1
     7     4     5   ar
     8     5     6   ar
     9     6     7   ar
    10     7     8   ar
    11     8    11    1
    12    11    12   ar
    13    12    13   ar
    14    13    14   ar
    15    14    15   ar
    16    15    17    1
    17    17    18    1
    18    15    16   ar
    19     8     9   ar
    20     9    10    1
    21    21    24    1
    22    24    25   ar
    23    25    26   ar
    24    26    27   ar
    25    27    30    1
    26    30    31    1
    27    31    32    1
    28    32    33    1
    29    32    34    1
    30    32    35    1
    31    27    28   ar
    32    28    29   ar
    33    10     1    1
    34    29    24   ar
    35     9     4   ar
    36    16    11   ar
    37    22    23    1
    38    18    19    1
@<TRIPOS>MOLECULE
*****
 35 38 0 0 0
SMALL
GASTEIGER

@<TRIPOS>ATOM
      1 C         139.8191  139.2240  163.7610 C.3     1  UNL1        0.1200
      2 C         138.8884  138.3263  164.5212 C.3     1  UNL1        0.2250
      3 O         138.6761  138.5379  165.9909 O.3     1  UNL1       -0.4740
      4 C         139.3945  139.6472  166.7005 C.ar    1  UNL1        0.1346
      5 C         139.1821  139.8588  168.1703 C.ar    1  UNL1        0.0366
      6 C         139.9005  140.9681  168.8798 C.ar    1  UNL1        0.0031
      7 C         140.8312  141.8658  168.1195 C.ar    1  UNL1       -0.0001
      8 C         141.0435  141.6542  166.6498 C.ar    1  UNL1       -0.0009
      9 C         140.3252  140.5449  165.9403 C.ar    1  UNL1        0.0136
     10 C         140.5375  140.3333  164.4706 C.3     1  UNL1        0.0528
     11 C         141.9743  142.5519  165.8896 C.ar    1  UNL1        0.0026
     12 C         143.4509  142.4911  166.1459 C.ar    1  UNL1        0.0206
     13 C         144.3817  143.3888  165.3857 C.ar    1  UNL1        0.0985
     14 N         143.8357  144.3473  164.3692 N.ar    1  UNL1       -0.2457
     15 CA        142.3590  144.4081  164.1130 C.ar    1  UNL1        0.0885
     16 C         141.4283  143.5104  164.8731 C.ar    1  UNL1        0.0172
     17 C         141.8130  145.3666  163.0965 C.3     1  UNL1        0.1829
     18 O         142.2009  145.2314  161.6538 O.3     1  UNL1       -0.3760
     19 H         143.1487  145.4129  161.5555 H       1  UNL1        0.2110
     20 O         142.4219  138.1122  162.7662 O.2     1  UNL1       -0.2701
     21 C         141.3328  138.4565  161.7939 C.2     1  UNL1        0.2474
     22 N         140.0315  139.0124  162.2912 N.am    1  UNL1       -0.2986
     23 H         139.3167  139.2385  161.6531 H       1  UNL1        0.1498
     24 C         141.5452  138.2450  160.3241 C.ar    1  UNL1        0.0727
     25 C         140.4584  138.5947  159.3513 C.ar    1  UNL1        0.0109
     26 C         140.6708  138.3831  157.8816 C.ar    1  UNL1        0.0579
     27 C         141.9700  137.8218  157.3847 C.ar    1  UNL1        0.2251
     28 N         143.0568  137.4720  158.3575 N.ar    1  UNL1       -0.2100
     29 C         142.8444  137.6836  159.8272 C.ar    1  UNL1        0.1065
     30 O         142.1824  137.6102  155.9149 O.3     1  UNL1       -0.4509
     31 C         143.4259  136.9277  155.4274 C.3     1  UNL1        0.3095
     32 C         143.4001  135.4631  155.1045 C.3     1  UNL1        0.4381
     33 F         143.3742  133.9985  154.7815 F       1  UNL1       -0.1663
     34 F         142.6475  135.7551  153.8403 F       1  UNL1       -0.1663
     35 F         144.1527  135.1711  156.3687 F       1  UNL1       -0.1663
@<TRIPOS>BOND
     1    20    21    2
     2    21    22   am
     3     1    22    1
     4     1     2    1
     5     2     3    1
     6     3     4    1
     7     4     5   ar
     8     5     6   ar
     9     6     7   ar
    10     7     8   ar
    11     8    11    1
    12    11    12   ar
    13    12    13   ar
    14    13    14   ar
    15    14    15   ar
    16    15    17    1
    17    17    18    1
    18    15    16   ar
    19     8     9   ar
    20     9    10    1
    21    21    24    1
    22    24    25   ar
    23    25    26   ar
    24    26    27   ar
    25    27    30    1
    26    30    31    1
    27    31    32    1
    28    32    33    1
    29    32    34    1
    30    32    35    1
    31    27    28   ar
    32    28    29   ar
    33    10     1    1
    34    29    24   ar
    35     9     4   ar
    36    16    11   ar
    37    22    23    1
    38    18    19    1
@<TRIPOS>MOLECULE
*****
 35 38 0 0 0
SMALL
GASTEIGER

@<TRIPOS>ATOM
      1 C         141.5777  142.6202  160.9859 C.3     1  UNL1        0.1200
      2 C         142.4074  143.8633  160.8580 C.3     1  UNL1        0.2250
      3 O         143.2694  144.3104  162.0012 O.3     1  UNL1       -0.4740
      4 C         143.3017  143.5145  163.2722 C.ar    1  UNL1        0.1346
      5 C         144.1639  143.9617  164.4155 C.ar    1  UNL1        0.0366
      6 C         144.1962  143.1658  165.6865 C.ar    1  UNL1        0.0031
      7 C         143.3664  141.9228  165.8143 C.ar    1  UNL1       -0.0001
      8 C         142.5043  141.4756  164.6711 C.ar    1  UNL1       -0.0009
      9 C         142.4720  142.2715  163.4001 C.ar    1  UNL1        0.0136
     10 C         141.6100  141.8244  162.2569 C.3     1  UNL1        0.0528
     11 C         141.6746  140.2326  164.7990 C.ar    1  UNL1        0.0026
     12 C         142.2239  138.9138  164.3417 C.ar    1  UNL1        0.0206
     13 C         141.3941  137.6708  164.4696 C.ar    1  UNL1        0.0985
     14 N         140.0151  137.7465  165.0547 N.ar    1  UNL1       -0.2457
     15 CA        139.4658  139.0653  165.5120 C.ar    1  UNL1        0.0885
     16 C         140.2955  140.3083  165.3842 C.ar    1  UNL1        0.0172
     17 C         138.0866  139.1409  166.0972 C.3     1  UNL1        0.1829
     18 O         137.7631  138.3897  167.3545 O.3     1  UNL1       -0.3760
     19 H         137.8149  137.4362  167.1838 H       1  UNL1        0.2110
     20 O         138.7369  143.5646  160.7905 O.2     1  UNL1       -0.2701
     21 C         139.2952  142.6452  159.7450 C.2     1  UNL1        0.2474
     22 N         140.7156  142.1730  159.8427 N.am    1  UNL1       -0.2986
     23 H         141.0820  141.5696  159.1565 H       1  UNL1        0.1498
     24 C         138.4331  142.1980  158.6018 C.ar    1  UNL1        0.0727
     25 C         138.1651  143.1281  157.4559 C.ar    1  UNL1        0.0109
     26 C         137.3031  142.6809  156.3128 C.ar    1  UNL1        0.0579
     27 C         136.7090  141.3035  156.3155 C.ar    1  UNL1        0.2251
     28 N         136.9770  140.3734  157.4614 N.ar    1  UNL1       -0.2100
     29 C         137.8390  140.8206  158.6045 C.ar    1  UNL1        0.1065
     30 O         135.8469  140.8563  155.1723 O.3     1  UNL1       -0.4509
     31 C         134.3535  140.8594  155.3131 C.3     1  UNL1        0.3095
     32 C         133.6549  139.6780  155.9182 C.3     1  UNL1        0.4381
     33 F         132.9562  138.4965  156.5233 F       1  UNL1       -0.1663
     34 F         134.6545  138.7598  155.2797 F       1  UNL1       -0.1663
     35 F         132.6553  140.5962  156.5567 F       1  UNL1       -0.1663
@<TRIPOS>BOND
     1    20    21    2
     2    21    22   am
     3     1    22    1
     4     1     2    1
     5     2     3    1
     6     3     4    1
     7     4     5   ar
     8     5     6   ar
     9     6     7   ar
    10     7     8   ar
    11     8    11    1
    12    11    12   ar
    13    12    13   ar
    14    13    14   ar
    15    14    15   ar
    16    15    17    1
    17    17    18    1
    18    15    16   ar
    19     8     9   ar
    20     9    10    1
    21    21    24    1
    22    24    25   ar
    23    25    26   ar
    24    26    27   ar
    25    27    30    1
    26    30    31    1
    27    31    32    1
    28    32    33    1
    29    32    34    1
    30    32    35    1
    31    27    28   ar
    32    28    29   ar
    33    10     1    1
    34    29    24   ar
    35     9     4   ar
    36    16    11   ar
    37    22    23    1
    38    18    19    1
@<TRIPOS>MOLECULE
*****
 35 38 0 0 0
SMALL
GASTEIGER

@<TRIPOS>ATOM
      1 C         141.7683  138.9979  161.9335 C.3     1  UNL1        0.1200
      2 C         141.8010  137.5503  162.3252 C.3     1  UNL1        0.2250
      3 O         140.9174  137.0523  163.4303 O.3     1  UNL1       -0.4740
      4 C         140.0012  138.0019  164.1436 C.ar    1  UNL1        0.1346
      5 C         139.1176  137.5038  165.2488 C.ar    1  UNL1        0.0366
      6 C         138.2013  138.4534  165.9621 C.ar    1  UNL1        0.0031
      7 C         138.1686  139.9010  165.5703 C.ar    1  UNL1       -0.0001
      8 C         139.0522  140.3990  164.4652 C.ar    1  UNL1       -0.0009
      9 C         139.9685  139.4494  163.7519 C.ar    1  UNL1        0.0136
     10 C         140.8521  139.9474  162.6468 C.3     1  UNL1        0.0528
     11 C         139.0195  141.8465  164.0734 C.ar    1  UNL1        0.0026
     12 C         137.7586  142.4472  163.5263 C.ar    1  UNL1        0.0206
     13 C         137.7260  143.8948  163.1346 C.ar    1  UNL1        0.0985
     14 N         138.9542  144.7417  163.2899 N.ar    1  UNL1       -0.2457
     15 CA        140.2151  144.1410  163.8370 C.ar    1  UNL1        0.0885
     16 C         140.2478  142.6935  164.2288 C.ar    1  UNL1        0.0172
     17 C         141.4434  144.9880  163.9923 C.3     1  UNL1        0.1829
     18 O         141.9984  145.7280  162.8115 O.3     1  UNL1       -0.3760
     19 H         142.3218  145.0921  162.1543 H       1  UNL1        0.2110
     20 O         141.0336  138.4716  159.0728 O.2     1  UNL1       -0.2701
     21 C         142.2846  139.2328  159.3981 C.2     1  UNL1        0.2474
     22 N         142.6519  139.4959  160.8283 N.am    1  UNL1       -0.2986
     23 H         143.4730  139.9955  161.0418 H       1  UNL1        0.1498
     24 C         143.1682  139.7308  158.2929 C.ar    1  UNL1        0.0727
     25 C         144.0075  140.9569  158.4985 C.ar    1  UNL1        0.0109
     26 C         144.8911  141.4549  157.3934 C.ar    1  UNL1        0.0579
     27 C         144.9353  140.7268  156.0827 C.ar    1  UNL1        0.2251
     28 N         144.0959  139.5008  155.8771 N.ar    1  UNL1       -0.2100
     29 C         143.2124  139.0028  156.9822 C.ar    1  UNL1        0.1065
     30 O         145.8189  141.2249  154.9776 O.3     1  UNL1       -0.4509
     31 C         146.7963  142.3320  155.2400 C.3     1  UNL1        0.3095
     32 C         148.2247  142.0099  155.5651 C.3     1  UNL1        0.4381
     33 F         149.6533  141.6878  155.8903 F       1  UNL1       -0.1663
     34 F         148.0348  142.5620  156.9468 F       1  UNL1       -0.1663
     35 F         148.4147  141.4577  154.1835 F       1  UNL1       -0.1663
@<TRIPOS>BOND
     1    20    21    2
     2    21    22   am
     3     1    22    1
     4     1     2    1
     5     2     3    1
     6     3     4    1
     7     4     5   ar
     8     5     6   ar
     9     6     7   ar
    10     7     8   ar
    11     8    11    1
    12    11    12   ar
    13    12    13   ar
    14    13    14   ar
    15    14    15   ar
    16    15    17    1
    17    17    18    1
    18    15    16   ar
    19     8     9   ar
    20     9    10    1
    21    21    24    1
    22    24    25   ar
    23    25    26   ar
    24    26    27   ar
    25    27    30    1
    26    30    31    1
    27    31    32    1
    28    32    33    1
    29    32    34    1
    30    32    35    1
    31    27    28   ar
    32    28    29   ar
    33    10     1    1
    34    29    24   ar
    35     9     4   ar
    36    16    11   ar
    37    22    23    1
    38    18    19    1
@<TRIPOS>MOLECULE
*****
 35 38 0 0 0
SMALL
GASTEIGER

@<TRIPOS>ATOM
      1 C         139.5625  139.2214  164.0133 C.3     1  UNL1        0.1200
      2 C         138.6681  138.3599  164.8546 C.3     1  UNL1        0.2250
      3 O         138.5526  138.6133  166.3285 O.3     1  UNL1       -0.4740
      4 C         139.3315  139.7283  166.9611 C.ar    1  UNL1        0.1346
      5 C         139.2159  139.9817  168.4351 C.ar    1  UNL1        0.0366
      6 C         139.9948  141.0967  169.0676 C.ar    1  UNL1        0.0031
      7 C         140.8892  141.9583  168.2263 C.ar    1  UNL1       -0.0001
      8 C         141.0047  141.7048  166.7524 C.ar    1  UNL1       -0.0009
      9 C         140.2258  140.5898  166.1198 C.ar    1  UNL1        0.0136
     10 C         140.3413  140.3364  164.6459 C.3     1  UNL1        0.0528
     11 C         141.8991  142.5663  165.9111 C.ar    1  UNL1        0.0026
     12 C         143.3891  142.4402  166.0287 C.ar    1  UNL1        0.0206
     13 C         144.2835  143.3018  165.1874 C.ar    1  UNL1        0.0985
     14 N         143.6878  144.2895  164.2284 N.ar    1  UNL1       -0.2457
     15 CA        142.1978  144.4156  164.1108 C.ar    1  UNL1        0.0885
     16 C         141.3034  143.5541  164.9521 C.ar    1  UNL1        0.0172
     17 C         141.6021  145.4034  163.1518 C.3     1  UNL1        0.1829
     18 O         140.1615  145.8004  163.2823 O.3     1  UNL1       -0.3760
     19 H         139.5968  145.0337  163.0973 H       1  UNL1        0.2110
     20 O         137.9741  140.8742  162.0780 O.2     1  UNL1       -0.2701
     21 C         138.8839  139.7944  161.5718 C.2     1  UNL1        0.2474
     22 N         139.6780  138.9680  162.5394 N.am    1  UNL1       -0.2986
     23 H         140.2751  138.2592  162.2071 H       1  UNL1        0.1498
     24 C         138.9994  139.5409  160.0978 C.ar    1  UNL1        0.0727
     25 C         140.0206  138.5713  159.5813 C.ar    1  UNL1        0.0109
     26 C         140.1361  138.3179  158.1074 C.ar    1  UNL1        0.0579
     27 C         139.2304  139.0342  157.1500 C.ar    1  UNL1        0.2251
     28 N         138.2092  140.0039  157.6665 N.ar    1  UNL1       -0.2100
     29 C         138.0937  140.2573  159.1404 C.ar    1  UNL1        0.1065
     30 O         139.3459  138.7807  155.6760 O.3     1  UNL1       -0.4509
     31 C         138.7667  137.5310  155.0822 C.3     1  UNL1        0.3095
     32 C         137.7157  137.6245  154.0162 C.3     1  UNL1        0.4381
     33 F         136.6646  137.7180  152.9500 F       1  UNL1       -0.1663
     34 F         138.4313  136.5749  153.2186 F       1  UNL1       -0.1663
     35 F         137.0001  138.6741  154.8138 F       1  UNL1       -0.1663
@<TRIPOS>BOND
     1    20    21    2
     2    21    22   am
     3     1    22    1
     4     1     2    1
     5     2     3    1
     6     3     4    1
     7     4     5   ar
     8     5     6   ar
     9     6     7   ar
    10     7     8   ar
    11     8    11    1
    12    11    12   ar
    13    12    13   ar
    14    13    14   ar
    15    14    15   ar
    16    15    17    1
    17    17    18    1
    18    15    16   ar
    19     8     9   ar
    20     9    10    1
    21    21    24    1
    22    24    25   ar
    23    25    26   ar
    24    26    27   ar
    25    27    30    1
    26    30    31    1
    27    31    32    1
    28    32    33    1
    29    32    34    1
    30    32    35    1
    31    27    28   ar
    32    28    29   ar
    33    10     1    1
    34    29    24   ar
    35     9     4   ar
    36    16    11   ar
    37    22    23    1
    38    18    19    1
@<TRIPOS>MOLECULE
*****
 35 38 0 0 0
SMALL
GASTEIGER

@<TRIPOS>ATOM
      1 C         143.0497  142.9389  164.3321 C.3     1  UNL1        0.1200
      2 C         144.0569  143.6998  165.1424 C.3     1  UNL1        0.2250
      3 O         144.2056  143.4201  166.6085 O.3     1  UNL1       -0.4740
      4 C         143.3471  142.3795  167.2644 C.ar    1  UNL1        0.1346
      5 C         143.4959  142.0998  168.7306 C.ar    1  UNL1        0.0366
      6 C         142.6374  141.0592  169.3865 C.ar    1  UNL1        0.0031
      7 C         141.6302  140.2983  168.5762 C.ar    1  UNL1       -0.0001
      8 C         141.4815  140.5780  167.1100 C.ar    1  UNL1       -0.0009
      9 C         142.3400  141.6186  166.4541 C.ar    1  UNL1        0.0136
     10 C         142.1913  141.8983  164.9880 C.3     1  UNL1        0.0528
     11 C         140.4744  139.8170  166.2998 C.ar    1  UNL1        0.0026
     12 C         139.0432  139.7584  166.7452 C.ar    1  UNL1        0.0206
     13 C         138.0361  138.9975  165.9349 C.ar    1  UNL1        0.0985
     14 N         138.4600  138.2951  164.6791 N.ar    1  UNL1       -0.2457
     15 CA        139.8912  138.3537  164.2337 C.ar    1  UNL1        0.0885
     16 C         140.8983  139.1146  165.0439 C.ar    1  UNL1        0.0172
     17 C         140.3151  137.6513  162.9779 C.3     1  UNL1        0.1829
     18 O         141.3059  136.5272  163.0452 O.3     1  UNL1       -0.3760
     19 H         142.1649  136.8704  163.3372 H       1  UNL1        0.2110
     20 O         140.7929  144.6564  163.3540 O.2     1  UNL1       -0.2701
     21 C         141.7726  144.0773  162.3769 C.2     1  UNL1        0.2474
     22 N         142.9010  143.2185  162.8659 N.am    1  UNL1       -0.2986
     23 H         143.5440  142.8384  162.2246 H       1  UNL1        0.1498
     24 C         141.6238  144.3569  160.9106 C.ar    1  UNL1        0.0727
     25 C         142.4709  143.6191  159.9167 C.ar    1  UNL1        0.0109
     26 C         142.3221  143.8988  158.4505 C.ar    1  UNL1        0.0579
     27 C         141.3263  144.9163  157.9784 C.ar    1  UNL1        0.2251
     28 N         140.4793  145.6542  158.9723 N.ar    1  UNL1       -0.2100
     29 C         140.6280  145.3745  160.4385 C.ar    1  UNL1        0.1065
     30 O         141.1776  145.1960  156.5122 O.3     1  UNL1       -0.4509
     31 C         139.8696  145.6938  155.9725 C.3     1  UNL1        0.3095
     32 C         139.7588  147.0953  155.4495 C.3     1  UNL1        0.4381
     33 F         139.6480  148.4968  154.9265 F       1  UNL1       -0.1663
     34 F         140.5458  146.7040  154.2341 F       1  UNL1       -0.1663
     35 F         138.9718  147.4867  156.6650 F       1  UNL1       -0.1663
@<TRIPOS>BOND
     1    20    21    2
     2    21    22   am
     3     1    22    1
     4     1     2    1
     5     2     3    1
     6     3     4    1
     7     4     5   ar
     8     5     6   ar
     9     6     7   ar
    10     7     8   ar
    11     8    11    1
    12    11    12   ar
    13    12    13   ar
    14    13    14   ar
    15    14    15   ar
    16    15    17    1
    17    17    18    1
    18    15    16   ar
    19     8     9   ar
    20     9    10    1
    21    21    24    1
    22    24    25   ar
    23    25    26   ar
    24    26    27   ar
    25    27    30    1
    26    30    31    1
    27    31    32    1
    28    32    33    1
    29    32    34    1
    30    32    35    1
    31    27    28   ar
    32    28    29   ar
    33    10     1    1
    34    29    24   ar
    35     9     4   ar
    36    16    11   ar
    37    22    23    1
    38    18    19    1
