@<TRIPOS>MOLECULE
*****
 37 40 0 0 0
SMALL
GASTEIGER

@<TRIPOS>ATOM
      1 C         143.3300  139.1401  160.3933 C.ar    1  UNL1        0.1005
      2 C         143.6902  140.4619  159.7827 C.ar    1  UNL1        0.1193
      3 N         143.6473  140.6367  158.2935 N.ar    1  UNL1       -0.2265
      4 C         143.2442  139.4897  157.4150 C.ar    1  UNL1        0.1432
      5 N         143.2013  139.6645  155.9258 N.pl3   1  UNL1       -0.3414
      6 C         142.8840  138.1678  158.0257 C.ar    1  UNL1        0.1123
      7 N         142.9269  137.9930  159.5148 N.ar    1  UNL1       -0.2410
      8 H         143.4378  140.5321  155.5250 H       1  UNL1        0.1438
      9 H         142.9368  138.9117  155.3492 H       1  UNL1        0.1438
     10 C         143.4586  138.6156  164.8609 C.ar    1  UNL1        0.0536
     11 C         142.3748  137.9576  164.0593 C.ar    1  UNL1        0.0046
     12 C         142.3320  138.1324  162.5701 C.ar    1  UNL1        0.0017
     13 C         143.3729  138.9653  161.8825 C.ar    1  UNL1        0.0192
     14 C         144.4567  139.6232  162.6840 C.ar    1  UNL1        0.0017
     15 C         144.4996  139.4484  164.1732 C.ar    1  UNL1        0.0046
     16 N         141.1407  141.1994  169.0083 N.3     1  UNL1       -0.2723
     17 C         141.9705  140.1050  169.6113 C.3     1  UNL1        0.0938
     18 C         142.7574  139.1854  168.7252 C.3     1  UNL1        0.1110
     19 N         142.7146  139.3603  167.2361 N.am    1  UNL1       -0.2732
     20 C         143.5015  138.4407  166.3500 C.2     1  UNL1        0.2491
     21 O         144.3312  137.3463  166.9530 O.2     1  UNL1       -0.2699
     22 C         141.8848  140.4547  166.6330 C.3     1  UNL1        0.1110
     23 C         141.0979  141.3743  167.5191 C.3     1  UNL1        0.0938
     24 C         141.4263  143.1598  169.7667 C.3     1  UNL1        0.0160
     25 C         140.3538  142.1190  169.8943 C.3     1  UNL1        0.0456
     26 C         139.2812  141.0781  170.0220 C.3     1  UNL1        0.0160
     27 C         139.5669  143.0385  170.7804 C.3     1  UNL1        0.0160
     28 C         142.4809  137.0208  157.1472 C.ar    1  UNL1        0.0204
     29 C         141.1827  137.0704  156.3975 C.ar    1  UNL1        0.0015
     30 C         140.7795  135.9233  155.5190 C.ar    1  UNL1        0.0039
     31 C         141.6747  134.7266  155.3902 C.ar    1  UNL1        0.0714
     32 C         142.9729  134.6770  156.1399 C.ar    1  UNL1        0.0039
     33 C         143.3761  135.8241  157.0184 C.ar    1  UNL1        0.0015
     34 C         141.2716  133.5796  154.5117 C.3     1  UNL1        0.4186
     35 F         140.8685  132.4325  153.6332 F       1  UNL1       -0.1659
     36 F         141.1989  132.6848  155.7134 F       1  UNL1       -0.1659
     37 F         141.3442  134.4744  153.3100 F       1  UNL1       -0.1659
@<TRIPOS>BOND
     1    24    25    1
     2    25    26    1
     3    25    27    1
     4    25    16    1
     5    16    17    1
     6    17    18    1
     7    18    19    1
     8    19    20   am
     9    20    21    2
    10    20    10    1
    11    10    11   ar
    12    11    12   ar
    13    12    13   ar
    14    13     1    1
    15     1     2   ar
    16     2     3   ar
    17     3     4   ar
    18     4     5    1
    19     4     6   ar
    20     6    28    1
    21    28    29   ar
    22    29    30   ar
    23    30    31   ar
    24    31    34    1
    25    34    35    1
    26    34    36    1
    27    34    37    1
    28    31    32   ar
    29    32    33   ar
    30     6     7   ar
    31    13    14   ar
    32    14    15   ar
    33    19    22    1
    34    22    23    1
    35    23    16    1
    36    15    10   ar
    37     7     1   ar
    38    33    28   ar
    39     5     8    1
    40     5     9    1
@<TRIPOS>MOLECULE
*****
 37 40 0 0 0
SMALL
GASTEIGER

@<TRIPOS>ATOM
      1 C         140.1507  138.4794  163.2546 C.ar    1  UNL1        0.1005
      2 C         138.8758  137.7597  163.5812 C.ar    1  UNL1        0.1193
      3 N         138.2699  137.8899  164.9472 N.ar    1  UNL1       -0.2265
      4 C         138.9388  138.7398  165.9865 C.ar    1  UNL1        0.1432
      5 N         138.3328  138.8700  167.3525 N.pl3   1  UNL1       -0.3414
      6 C         140.2137  139.4595  165.6599 C.ar    1  UNL1        0.1123
      7 N         140.8196  139.3293  164.2940 N.ar    1  UNL1       -0.2410
      8 H         137.4961  138.3976  167.5669 H       1  UNL1        0.1438
      9 H         138.7719  139.4278  168.0347 H       1  UNL1        0.1438
     10 C         141.9686  138.0888  159.1567 C.ar    1  UNL1        0.0536
     11 C         142.7377  137.6410  160.3642 C.ar    1  UNL1        0.0046
     12 C         142.1317  137.7712  161.7301 C.ar    1  UNL1        0.0017
     13 C         140.7566  138.3492  161.8886 C.ar    1  UNL1        0.0192
     14 C         139.9876  138.7970  160.6812 C.ar    1  UNL1        0.0017
     15 C         140.5936  138.6668  159.3152 C.ar    1  UNL1        0.0046
     16 N         145.3614  141.1397  156.2531 N.3     1  UNL1       -0.2723
     17 C         145.0385  139.9491  155.3997 C.3     1  UNL1        0.0938
     18 C         144.1096  138.8888  155.9123 C.3     1  UNL1        0.1110
     19 N         143.5036  139.0190  157.2782 N.am    1  UNL1       -0.2732
     20 C         142.5746  137.9586  157.7908 C.2     1  UNL1        0.2491
     21 O         142.2517  136.7681  156.9374 O.2     1  UNL1       -0.2699
     22 C         143.8265  140.2095  158.1316 C.3     1  UNL1        0.1110
     23 C         144.7554  141.2699  157.6190 C.3     1  UNL1        0.0938
     24 C         146.6174  142.5950  157.1502 C.3     1  UNL1        0.0160
     25 C         146.2904  142.2000  155.7405 C.3     1  UNL1        0.0456
     26 C         145.9634  141.8051  154.3309 C.3     1  UNL1        0.0160
     27 C         147.2193  143.2604  155.2279 C.3     1  UNL1        0.0160
     28 C         140.8826  140.3094  166.6992 C.ar    1  UNL1        0.0204
     29 C         140.4394  141.7271  166.9077 C.ar    1  UNL1        0.0015
     30 C         141.1083  142.5770  167.9470 C.ar    1  UNL1        0.0039
     31 C         142.2205  142.0091  168.7779 C.ar    1  UNL1        0.0714
     32 C         142.6638  140.5914  168.5695 C.ar    1  UNL1        0.0039
     33 C         141.9949  139.7415  167.5301 C.ar    1  UNL1        0.0015
     34 C         142.8895  142.8590  169.8172 C.3     1  UNL1        0.4186
     35 F         143.5584  143.7089  170.8565 F       1  UNL1       -0.1659
     36 F         141.6472  143.6913  169.9362 F       1  UNL1       -0.1659
     37 F         144.1317  142.0268  169.6982 F       1  UNL1       -0.1659
@<TRIPOS>BOND
     1    24    25    1
     2    25    26    1
     3    25    27    1
     4    25    16    1
     5    16    17    1
     6    17    18    1
     7    18    19    1
     8    19    20   am
     9    20    21    2
    10    20    10    1
    11    10    11   ar
    12    11    12   ar
    13    12    13   ar
    14    13     1    1
    15     1     2   ar
    16     2     3   ar
    17     3     4   ar
    18     4     5    1
    19     4     6   ar
    20     6    28    1
    21    28    29   ar
    22    29    30   ar
    23    30    31   ar
    24    31    34    1
    25    34    35    1
    26    34    36    1
    27    34    37    1
    28    31    32   ar
    29    32    33   ar
    30     6     7   ar
    31    13    14   ar
    32    14    15   ar
    33    19    22    1
    34    22    23    1
    35    23    16    1
    36    15    10   ar
    37     7     1   ar
    38    33    28   ar
    39     5     8    1
    40     5     9    1
@<TRIPOS>MOLECULE
*****
 37 40 0 0 0
SMALL
GASTEIGER

@<TRIPOS>ATOM
      1 C         138.7305  139.8187  160.2336 C.ar    1  UNL1        0.1005
      2 C         138.1336  141.0127  159.5495 C.ar    1  UNL1        0.1193
      3 N         138.2258  141.1466  158.0584 N.ar    1  UNL1       -0.2265
      4 C         138.9149  140.0865  157.2513 C.ar    1  UNL1        0.1432
      5 N         139.0070  140.2205  155.7601 N.pl3   1  UNL1       -0.3414
      6 C         139.5118  138.8925  157.9354 C.ar    1  UNL1        0.1123
      7 N         139.4196  138.7586  159.4265 N.ar    1  UNL1       -0.2410
      8 H         138.6152  141.0042  155.3112 H       1  UNL1        0.1438
      9 H         139.4593  139.5247  155.2304 H       1  UNL1        0.1438
     10 C         138.4540  139.4168  164.7072 C.ar    1  UNL1        0.0536
     11 C         137.8814  140.6243  164.0257 C.ar    1  UNL1        0.0046
     12 C         137.9736  140.7582  162.5346 C.ar    1  UNL1        0.0017
     13 C         138.6383  139.6847  161.7248 C.ar    1  UNL1        0.0192
     14 C         139.2109  138.4773  162.4062 C.ar    1  UNL1        0.0017
     15 C         139.1187  138.3433  163.8974 C.ar    1  UNL1        0.0046
     16 N         141.1383  141.6361  168.8447 N.3     1  UNL1       -0.2723
     17 C         140.1206  140.7178  169.4537 C.3     1  UNL1        0.0938
     18 C         139.1951  139.9334  168.5716 C.3     1  UNL1        0.1110
     19 N         139.2873  140.0673  167.0804 N.am    1  UNL1       -0.2732
     20 C         138.3618  139.2829  166.1983 C.2     1  UNL1        0.2491
     21 O         137.3441  138.3645  166.8073 O.2     1  UNL1       -0.2699
     22 C         140.3050  140.9856  166.4714 C.3     1  UNL1        0.1110
     23 C         141.2304  141.7701  167.3535 C.3     1  UNL1        0.0938
     24 C         143.0975  141.3409  169.6023 C.3     1  UNL1        0.0160
     25 C         142.0638  142.4206  169.7268 C.3     1  UNL1        0.0456
     26 C         141.0300  143.5003  169.8513 C.3     1  UNL1        0.0160
     27 C         142.9892  143.2050  170.6089 C.3     1  UNL1        0.0160
     28 C         140.2008  137.8324  157.1283 C.ar    1  UNL1        0.0204
     29 C         141.6340  137.4895  157.4085 C.ar    1  UNL1        0.0015
     30 C         142.3231  136.4294  156.6014 C.ar    1  UNL1        0.0039
     31 C         141.5790  135.7122  155.5142 C.ar    1  UNL1        0.0714
     32 C         140.1459  136.0551  155.2341 C.ar    1  UNL1        0.0039
     33 C         139.4568  137.1152  156.0411 C.ar    1  UNL1        0.0015
     34 C         142.2681  134.6521  154.7071 C.3     1  UNL1        0.4186
     35 F         142.9572  133.5920  153.9001 F       1  UNL1       -0.1659
     36 F         143.5081  135.4948  154.6590 F       1  UNL1       -0.1659
     37 F         141.0281  133.8095  154.7552 F       1  UNL1       -0.1659
@<TRIPOS>BOND
     1    24    25    1
     2    25    26    1
     3    25    27    1
     4    25    16    1
     5    16    17    1
     6    17    18    1
     7    18    19    1
     8    19    20   am
     9    20    21    2
    10    20    10    1
    11    10    11   ar
    12    11    12   ar
    13    12    13   ar
    14    13     1    1
    15     1     2   ar
    16     2     3   ar
    17     3     4   ar
    18     4     5    1
    19     4     6   ar
    20     6    28    1
    21    28    29   ar
    22    29    30   ar
    23    30    31   ar
    24    31    34    1
    25    34    35    1
    26    34    36    1
    27    34    37    1
    28    31    32   ar
    29    32    33   ar
    30     6     7   ar
    31    13    14   ar
    32    14    15   ar
    33    19    22    1
    34    22    23    1
    35    23    16    1
    36    15    10   ar
    37     7     1   ar
    38    33    28   ar
    39     5     8    1
    40     5     9    1
@<TRIPOS>MOLECULE
*****
 37 40 0 0 0
SMALL
GASTEIGER

@<TRIPOS>ATOM
      1 C         142.6061  141.8426  160.9905 C.ar    1  UNL1        0.1005
      2 C         143.6394  142.8804  160.6663 C.ar    1  UNL1        0.1193
      3 N         144.0964  143.8398  161.7249 N.ar    1  UNL1       -0.2265
      4 C         143.5201  143.7615  163.1075 C.ar    1  UNL1        0.1432
      5 N         143.9772  144.7210  164.1661 N.pl3   1  UNL1       -0.3414
      6 C         142.4868  142.7237  163.4317 C.ar    1  UNL1        0.1123
      7 N         142.0298  141.7642  162.3731 N.ar    1  UNL1       -0.2410
      8 H         144.6554  145.4022  163.9533 H       1  UNL1        0.1438
      9 H         143.5990  144.6696  165.0736 H       1  UNL1        0.1438
     10 C         141.2349  138.9640  157.8149 C.ar    1  UNL1        0.0536
     11 C         142.2733  139.9975  157.4926 C.ar    1  UNL1        0.0046
     12 C         142.7303  140.9569  158.5511 C.ar    1  UNL1        0.0017
     13 C         142.1490  140.8830  159.9319 C.ar    1  UNL1        0.0192
     14 C         141.1106  139.8497  160.2542 C.ar    1  UNL1        0.0017
     15 C         140.6535  138.8901  159.1956 C.ar    1  UNL1        0.0046
     16 N         142.9600  134.1160  156.1504 N.3     1  UNL1       -0.2723
     17 C         141.7756  134.4527  155.2939 C.3     1  UNL1        0.0938
     18 C         141.0482  135.7489  155.4958 C.3     1  UNL1        0.1110
     19 N         141.5052  136.7084  156.5544 N.am    1  UNL1       -0.2732
     20 C         140.7779  138.0046  156.7563 C.2     1  UNL1        0.2491
     21 O         139.5935  138.3413  155.8998 O.2     1  UNL1       -0.2699
     22 C         142.6896  136.3716  157.4109 C.3     1  UNL1        0.1110
     23 C         143.4170  135.0754  157.2090 C.3     1  UNL1        0.0938
     24 C         142.9953  132.6368  154.6303 C.3     1  UNL1        0.0160
     25 C         143.6874  132.8198  155.9485 C.3     1  UNL1        0.0456
     26 C         144.3795  133.0028  157.2666 C.3     1  UNL1        0.0160
     27 C         144.4148  131.5236  155.7465 C.3     1  UNL1        0.0160
     28 C         141.9105  142.6453  164.8143 C.ar    1  UNL1        0.0204
     29 C         140.5828  143.2774  165.1104 C.ar    1  UNL1        0.0015
     30 C         140.0065  143.1990  166.4931 C.ar    1  UNL1        0.0039
     31 C         140.7579  142.4886  167.5796 C.ar    1  UNL1        0.0714
     32 C         142.0855  141.8564  167.2835 C.ar    1  UNL1        0.0039
     33 C         142.6618  141.9348  165.9009 C.ar    1  UNL1        0.0015
     34 C         140.1816  142.4102  168.9623 C.3     1  UNL1        0.4186
     35 F         139.6053  142.3318  170.3449 F       1  UNL1       -0.1659
     36 F         139.9768  140.9339  168.7932 F       1  UNL1       -0.1659
     37 F         140.3864  143.8865  169.1313 F       1  UNL1       -0.1659
@<TRIPOS>BOND
     1    24    25    1
     2    25    26    1
     3    25    27    1
     4    25    16    1
     5    16    17    1
     6    17    18    1
     7    18    19    1
     8    19    20   am
     9    20    21    2
    10    20    10    1
    11    10    11   ar
    12    11    12   ar
    13    12    13   ar
    14    13     1    1
    15     1     2   ar
    16     2     3   ar
    17     3     4   ar
    18     4     5    1
    19     4     6   ar
    20     6    28    1
    21    28    29   ar
    22    29    30   ar
    23    30    31   ar
    24    31    34    1
    25    34    35    1
    26    34    36    1
    27    34    37    1
    28    31    32   ar
    29    32    33   ar
    30     6     7   ar
    31    13    14   ar
    32    14    15   ar
    33    19    22    1
    34    22    23    1
    35    23    16    1
    36    15    10   ar
    37     7     1   ar
    38    33    28   ar
    39     5     8    1
    40     5     9    1
@<TRIPOS>MOLECULE
*****
 37 40 0 0 0
SMALL
GASTEIGER

@<TRIPOS>ATOM
      1 C         140.0274  144.3747  158.2441 C.ar    1  UNL1        0.1005
      2 C         139.2445  143.2915  157.5630 C.ar    1  UNL1        0.1193
      3 N         138.4619  143.5995  156.3210 N.ar    1  UNL1       -0.2265
      4 C         138.4622  144.9907  155.7600 C.ar    1  UNL1        0.1432
      5 N         137.6796  145.2986  154.5179 N.pl3   1  UNL1       -0.3414
      6 C         139.2451  146.0738  156.4410 C.ar    1  UNL1        0.1123
      7 N         140.0277  145.7658  157.6831 N.ar    1  UNL1       -0.2410
      8 H         137.1657  144.5877  154.0709 H       1  UNL1        0.1438
      9 H         137.6797  146.2117  154.1497 H       1  UNL1        0.1438
     10 C         142.3753  143.4508  161.9703 C.ar    1  UNL1        0.0536
     11 C         142.1932  142.3974  160.9180 C.ar    1  UNL1        0.0046
     12 C         141.4106  142.7054  159.6760 C.ar    1  UNL1        0.0017
     13 C         140.8100  144.0667  159.4862 C.ar    1  UNL1        0.0192
     14 C         140.9921  145.1201  160.5384 C.ar    1  UNL1        0.0017
     15 C         141.7747  144.8122  161.7805 C.ar    1  UNL1        0.0046
     16 N         141.0123  141.9827  166.9939 N.3     1  UNL1       -0.2723
     17 C         142.5101  142.0614  166.9754 C.3     1  UNL1        0.0938
     18 C         143.2253  142.4481  165.7148 C.3     1  UNL1        0.1110
     19 N         142.4427  142.7561  164.4728 N.am    1  UNL1       -0.2732
     20 C         143.1579  143.1428  163.2123 C.2     1  UNL1        0.2491
     21 O         144.6557  143.2215  163.1937 O.2     1  UNL1       -0.2699
     22 C         140.9449  142.6774  164.4913 C.3     1  UNL1        0.1110
     23 C         140.2297  142.2907  165.7519 C.3     1  UNL1        0.0938
     24 C         139.9482  140.2686  167.6493 C.3     1  UNL1        0.0160
     25 C         140.2971  141.5960  168.2544 C.3     1  UNL1        0.0456
     26 C         140.6461  142.9234  168.8596 C.3     1  UNL1        0.0160
     27 C         139.5820  141.2093  169.5150 C.3     1  UNL1        0.0160
     28 C         139.2454  147.4650  155.8801 C.ar    1  UNL1        0.0204
     29 C         140.0011  147.7652  154.6197 C.ar    1  UNL1        0.0015
     30 C         140.0014  149.1564  154.0587 C.ar    1  UNL1        0.0039
     31 C         139.2459  150.2473  154.7581 C.ar    1  UNL1        0.0714
     32 C         138.4902  149.9470  156.0185 C.ar    1  UNL1        0.0039
     33 C         138.4899  148.5558  156.5794 C.ar    1  UNL1        0.0015
     34 C         139.2462  151.6384  154.1971 C.3     1  UNL1        0.4186
     35 F         139.2465  153.0295  153.6361 F       1  UNL1       -0.1659
     36 F         140.3762  151.2693  153.2823 F       1  UNL1       -0.1659
     37 F         138.1162  152.0075  155.1119 F       1  UNL1       -0.1659
@<TRIPOS>BOND
     1    24    25    1
     2    25    26    1
     3    25    27    1
     4    25    16    1
     5    16    17    1
     6    17    18    1
     7    18    19    1
     8    19    20   am
     9    20    21    2
    10    20    10    1
    11    10    11   ar
    12    11    12   ar
    13    12    13   ar
    14    13     1    1
    15     1     2   ar
    16     2     3   ar
    17     3     4   ar
    18     4     5    1
    19     4     6   ar
    20     6    28    1
    21    28    29   ar
    22    29    30   ar
    23    30    31   ar
    24    31    34    1
    25    34    35    1
    26    34    36    1
    27    34    37    1
    28    31    32   ar
    29    32    33   ar
    30     6     7   ar
    31    13    14   ar
    32    14    15   ar
    33    19    22    1
    34    22    23    1
    35    23    16    1
    36    15    10   ar
    37     7     1   ar
    38    33    28   ar
    39     5     8    1
    40     5     9    1
@<TRIPOS>MOLECULE
*****
 37 40 0 0 0
SMALL
GASTEIGER

@<TRIPOS>ATOM
      1 C         140.1391  142.2819  161.3750 C.ar    1  UNL1        0.1005
      2 C         139.1583  143.3826  161.0985 C.ar    1  UNL1        0.1193
      3 N         138.3330  143.9498  162.2152 N.ar    1  UNL1       -0.2265
      4 C         138.4885  143.4163  163.6084 C.ar    1  UNL1        0.1432
      5 N         137.6631  143.9835  164.7252 N.pl3   1  UNL1       -0.3414
      6 C         139.4693  142.3156  163.8850 C.ar    1  UNL1        0.1123
      7 N         140.2946  141.7484  162.7683 N.ar    1  UNL1       -0.2410
      8 H         137.0194  144.7060  164.5436 H       1  UNL1        0.1438
      9 H         137.7651  143.6334  165.6396 H       1  UNL1        0.1438
     10 C         142.6152  140.5801  158.0249 C.ar    1  UNL1        0.0536
     11 C         141.2342  141.0969  157.7492 C.ar    1  UNL1        0.0046
     12 C         140.4089  141.6641  158.8659 C.ar    1  UNL1        0.0017
     13 C         140.9645  141.7146  160.2583 C.ar    1  UNL1        0.0192
     14 C         142.3454  141.1979  160.5340 C.ar    1  UNL1        0.0017
     15 C         143.1708  140.6306  159.4173 C.ar    1  UNL1        0.0046
     16 N         143.3762  135.5893  156.0853 N.3     1  UNL1       -0.2723
     17 C         144.2230  136.4966  155.2429 C.3     1  UNL1        0.0938
     18 C         144.2444  137.9712  155.5172 C.3     1  UNL1        0.1110
     19 N         143.4191  138.5384  156.6339 N.am    1  UNL1       -0.2732
     20 C         143.4405  140.0129  156.9082 C.2     1  UNL1        0.2491
     21 O         144.2873  140.9203  156.0657 O.2     1  UNL1       -0.2699
     22 C         142.5723  137.6310  157.4763 C.3     1  UNL1        0.1110
     23 C         142.5509  136.1565  157.2020 C.3     1  UNL1        0.0938
     24 C         142.7775  134.3760  154.4514 C.3     1  UNL1        0.0160
     25 C         143.3548  134.1147  155.8110 C.3     1  UNL1        0.0456
     26 C         143.9320  133.8534  157.1706 C.3     1  UNL1        0.0160
     27 C         143.3333  132.6402  155.5367 C.3     1  UNL1        0.0160
     28 C         139.6247  141.7821  165.2783 C.ar    1  UNL1        0.0204
     29 C         140.3587  142.5848  166.3112 C.ar    1  UNL1        0.0015
     30 C         140.5142  142.0514  167.7045 C.ar    1  UNL1        0.0039
     31 C         139.9356  140.7152  168.0649 C.ar    1  UNL1        0.0714
     32 C         139.2016  139.9125  167.0320 C.ar    1  UNL1        0.0039
     33 C         139.0462  140.4460  165.6387 C.ar    1  UNL1        0.0015
     34 C         140.0911  140.1817  169.4582 C.3     1  UNL1        0.4186
     35 F         140.2465  139.6483  170.8514 F       1  UNL1       -0.1659
     36 F         141.3437  139.4674  169.0449 F       1  UNL1       -0.1659
     37 F         138.8385  140.8961  169.8714 F       1  UNL1       -0.1659
@<TRIPOS>BOND
     1    24    25    1
     2    25    26    1
     3    25    27    1
     4    25    16    1
     5    16    17    1
     6    17    18    1
     7    18    19    1
     8    19    20   am
     9    20    21    2
    10    20    10    1
    11    10    11   ar
    12    11    12   ar
    13    12    13   ar
    14    13     1    1
    15     1     2   ar
    16     2     3   ar
    17     3     4   ar
    18     4     5    1
    19     4     6   ar
    20     6    28    1
    21    28    29   ar
    22    29    30   ar
    23    30    31   ar
    24    31    34    1
    25    34    35    1
    26    34    36    1
    27    34    37    1
    28    31    32   ar
    29    32    33   ar
    30     6     7   ar
    31    13    14   ar
    32    14    15   ar
    33    19    22    1
    34    22    23    1
    35    23    16    1
    36    15    10   ar
    37     7     1   ar
    38    33    28   ar
    39     5     8    1
    40     5     9    1
@<TRIPOS>MOLECULE
*****
 37 40 0 0 0
SMALL
GASTEIGER

@<TRIPOS>ATOM
      1 C         142.4839  138.8510  158.4958 C.ar    1  UNL1        0.1005
      2 C         143.3895  139.6891  157.6429 C.ar    1  UNL1        0.1193
      3 N         144.0499  139.0902  156.4366 N.ar    1  UNL1       -0.2265
      4 C         143.8047  137.6532  156.0832 C.ar    1  UNL1        0.1432
      5 N         144.4652  137.0543  154.8769 N.pl3   1  UNL1       -0.3414
      6 C         142.8991  136.8151  156.9361 C.ar    1  UNL1        0.1123
      7 N         142.2387  137.4140  158.1424 N.ar    1  UNL1       -0.2410
      8 H         145.0596  137.6043  154.3171 H       1  UNL1        0.1438
      9 H         144.3042  136.1111  154.6449 H       1  UNL1        0.1438
     10 C         140.5026  140.6476  162.1147 C.ar    1  UNL1        0.0536
     11 C         140.2431  139.2157  161.7509 C.ar    1  UNL1        0.0046
     12 C         140.9035  138.6169  160.5446 C.ar    1  UNL1        0.0017
     13 C         141.8235  139.4499  159.7021 C.ar    1  UNL1        0.0192
     14 C         142.0830  140.8817  160.0659 C.ar    1  UNL1        0.0017
     15 C         141.4226  141.4807  161.2723 C.ar    1  UNL1        0.0046
     16 N         141.8536  141.0065  167.3393 N.3     1  UNL1       -0.2723
     17 C         140.5227  141.6853  167.2062 C.3     1  UNL1        0.0938
     18 C         139.8522  141.7653  165.8667 C.3     1  UNL1        0.1110
     19 N         140.5127  141.1665  164.6605 N.am    1  UNL1       -0.2732
     20 C         139.8422  141.2465  163.3210 C.2     1  UNL1        0.2491
     21 O         138.5112  141.9253  163.1879 O.2     1  UNL1       -0.2699
     22 C         141.8436  140.4877  164.7936 C.3     1  UNL1        0.1110
     23 C         142.5141  140.4077  166.1330 C.3     1  UNL1        0.0938
     24 C         142.5957  142.4238  168.7323 C.3     1  UNL1        0.0160
     25 C         142.5241  140.9265  168.6787 C.3     1  UNL1        0.0456
     26 C         142.4526  139.4292  168.6251 C.3     1  UNL1        0.0160
     27 C         143.1946  140.8465  170.0181 C.3     1  UNL1        0.0160
     28 C         142.6539  135.3781  156.5827 C.ar    1  UNL1        0.0204
     29 C         143.4120  134.2925  157.2874 C.ar    1  UNL1        0.0015
     30 C         143.1668  132.8555  156.9340 C.ar    1  UNL1        0.0039
     31 C         142.1634  132.5041  155.8759 C.ar    1  UNL1        0.0714
     32 C         141.4053  133.5897  155.1711 C.ar    1  UNL1        0.0039
     33 C         141.6505  135.0267  155.5245 C.ar    1  UNL1        0.0015
     34 C         141.9182  131.0671  155.5225 C.3     1  UNL1        0.4186
     35 F         141.6730  129.6301  155.1691 F       1  UNL1       -0.1659
     36 F         140.5277  131.4134  155.0791 F       1  UNL1       -0.1659
     37 F         143.3087  130.7208  155.9658 F       1  UNL1       -0.1659
@<TRIPOS>BOND
     1    24    25    1
     2    25    26    1
     3    25    27    1
     4    25    16    1
     5    16    17    1
     6    17    18    1
     7    18    19    1
     8    19    20   am
     9    20    21    2
    10    20    10    1
    11    10    11   ar
    12    11    12   ar
    13    12    13   ar
    14    13     1    1
    15     1     2   ar
    16     2     3   ar
    17     3     4   ar
    18     4     5    1
    19     4     6   ar
    20     6    28    1
    21    28    29   ar
    22    29    30   ar
    23    30    31   ar
    24    31    34    1
    25    34    35    1
    26    34    36    1
    27    34    37    1
    28    31    32   ar
    29    32    33   ar
    30     6     7   ar
    31    13    14   ar
    32    14    15   ar
    33    19    22    1
    34    22    23    1
    35    23    16    1
    36    15    10   ar
    37     7     1   ar
    38    33    28   ar
    39     5     8    1
    40     5     9    1
@<TRIPOS>MOLECULE
*****
 37 40 0 0 0
SMALL
GASTEIGER

@<TRIPOS>ATOM
      1 C         140.4942  138.8907  162.9714 C.ar    1  UNL1        0.1005
      2 C         139.2335  138.1051  163.1800 C.ar    1  UNL1        0.1193
      3 N         138.5574  138.1138  164.5190 N.ar    1  UNL1       -0.2265
      4 C         139.1419  138.9081  165.6492 C.ar    1  UNL1        0.1432
      5 N         138.4657  138.9167  166.9882 N.pl3   1  UNL1       -0.3414
      6 C         140.4026  139.6937  165.4405 C.ar    1  UNL1        0.1123
      7 N         141.0787  139.6850  164.1016 N.ar    1  UNL1       -0.2410
      8 H         137.6383  138.4011  167.1251 H       1  UNL1        0.1438
      9 H         138.8494  139.4380  167.7300 H       1  UNL1        0.1438
     10 C         142.5226  138.8647  158.9545 C.ar    1  UNL1        0.0536
     11 C         141.3249  139.7381  159.1843 C.ar    1  UNL1        0.0046
     12 C         140.6488  139.7467  160.5232 C.ar    1  UNL1        0.0017
     13 C         141.1703  138.8820  161.6324 C.ar    1  UNL1        0.0192
     14 C         142.3680  138.0087  161.4027 C.ar    1  UNL1        0.0017
     15 C         143.0442  138.0001  160.0637 C.ar    1  UNL1        0.0046
     16 N         141.9560  135.8703  154.4866 N.3     1  UNL1       -0.2723
     17 C         143.0464  136.8570  154.1907 C.3     1  UNL1        0.0938
     18 C         143.4606  137.8522  155.2337 C.3     1  UNL1        0.1110
     19 N         142.7845  137.8608  156.5726 N.am    1  UNL1       -0.2732
     20 C         143.1988  138.8561  157.6156 C.2     1  UNL1        0.2491
     21 O         144.2891  139.8427  157.3197 O.2     1  UNL1       -0.2699
     22 C         141.6942  136.8742  156.8685 C.3     1  UNL1        0.1110
     23 C         141.2799  135.8789  155.8255 C.3     1  UNL1        0.0938
     24 C         141.5467  133.7889  154.4781 C.3     1  UNL1        0.0160
     25 C         141.5418  134.8751  153.4436 C.3     1  UNL1        0.0456
     26 C         141.5368  135.9612  152.4091 C.3     1  UNL1        0.0160
     27 C         141.1275  133.8798  152.4006 C.3     1  UNL1        0.0160
     28 C         140.9871  140.4879  166.5708 C.ar    1  UNL1        0.0204
     29 C         142.1080  139.9169  167.3878 C.ar    1  UNL1        0.0015
     30 C         142.6925  140.7111  168.5180 C.ar    1  UNL1        0.0039
     31 C         142.1562  142.0765  168.8313 C.ar    1  UNL1        0.0714
     32 C         141.0353  142.6475  168.0143 C.ar    1  UNL1        0.0039
     33 C         140.4508  141.8532  166.8841 C.ar    1  UNL1        0.0015
     34 C         142.7407  142.8707  169.9615 C.3     1  UNL1        0.4186
     35 F         143.3252  143.6650  171.0918 F       1  UNL1       -0.1659
     36 F         143.9445  141.9759  169.9678 F       1  UNL1       -0.1659
     37 F         141.5369  143.7656  169.9553 F       1  UNL1       -0.1659
@<TRIPOS>BOND
     1    24    25    1
     2    25    26    1
     3    25    27    1
     4    25    16    1
     5    16    17    1
     6    17    18    1
     7    18    19    1
     8    19    20   am
     9    20    21    2
    10    20    10    1
    11    10    11   ar
    12    11    12   ar
    13    12    13   ar
    14    13     1    1
    15     1     2   ar
    16     2     3   ar
    17     3     4   ar
    18     4     5    1
    19     4     6   ar
    20     6    28    1
    21    28    29   ar
    22    29    30   ar
    23    30    31   ar
    24    31    34    1
    25    34    35    1
    26    34    36    1
    27    34    37    1
    28    31    32   ar
    29    32    33   ar
    30     6     7   ar
    31    13    14   ar
    32    14    15   ar
    33    19    22    1
    34    22    23    1
    35    23    16    1
    36    15    10   ar
    37     7     1   ar
    38    33    28   ar
    39     5     8    1
    40     5     9    1
@<TRIPOS>MOLECULE
*****
 37 40 0 0 0
SMALL
GASTEIGER

@<TRIPOS>ATOM
      1 C         139.0509  139.4838  160.3038 C.ar    1  UNL1        0.1005
      2 C         139.3359  138.2318  159.5285 C.ar    1  UNL1        0.1193
      3 N         139.4941  138.2923  158.0381 N.ar    1  UNL1       -0.2265
      4 C         139.3673  139.6048  157.3231 C.ar    1  UNL1        0.1432
      5 N         139.5255  139.6652  155.8326 N.pl3   1  UNL1       -0.3414
      6 C         139.0823  140.8568  158.0984 C.ar    1  UNL1        0.1123
      7 N         138.9241  140.7963  159.5888 N.ar    1  UNL1       -0.2410
      8 H         139.7126  138.8434  155.3237 H       1  UNL1        0.1438
      9 H         139.4423  140.5266  155.3633 H       1  UNL1        0.1438
     10 C         138.5762  139.3025  164.7751 C.ar    1  UNL1        0.0536
     11 C         138.0200  140.4657  164.0083 C.ar    1  UNL1        0.0046
     12 C         138.1783  140.5261  162.5179 C.ar    1  UNL1        0.0017
     13 C         138.8927  139.4234  161.7943 C.ar    1  UNL1        0.0192
     14 C         139.4488  138.2603  162.5610 C.ar    1  UNL1        0.0017
     15 C         139.2906  138.1998  164.0514 C.ar    1  UNL1        0.0046
     16 N         141.1726  141.6134  168.9186 N.3     1  UNL1       -0.2723
     17 C         140.0962  140.7626  169.5246 C.3     1  UNL1        0.0938
     18 C         139.1779  139.9722  168.6402 C.3     1  UNL1        0.1110
     19 N         139.3362  140.0325  167.1498 N.am    1  UNL1       -0.2732
     20 C         138.4179  139.2421  166.2655 C.2     1  UNL1        0.2491
     21 O         137.3415  138.3913  166.8715 O.2     1  UNL1       -0.2699
     22 C         140.4126  140.8833  166.5438 C.3     1  UNL1        0.1110
     23 C         141.3309  141.6738  167.4282 C.3     1  UNL1        0.0938
     24 C         143.1285  141.3267  169.6883 C.3     1  UNL1        0.0160
     25 C         142.0909  142.4038  169.8029 C.3     1  UNL1        0.0456
     26 C         141.0532  143.4809  169.9176 C.3     1  UNL1        0.0160
     27 C         143.0091  143.1942  170.6873 C.3     1  UNL1        0.0160
     28 C         138.9555  142.1693  157.3833 C.ar    1  UNL1        0.0204
     29 C         140.1194  143.1143  157.3383 C.ar    1  UNL1        0.0015
     30 C         139.9926  144.4268  156.6232 C.ar    1  UNL1        0.0039
     31 C         138.7019  144.7942  155.9533 C.ar    1  UNL1        0.0714
     32 C         137.5379  143.8492  155.9983 C.ar    1  UNL1        0.0039
     33 C         137.6647  142.5367  156.7134 C.ar    1  UNL1        0.0015
     34 C         138.5751  146.1067  155.2382 C.3     1  UNL1        0.4186
     35 F         138.4483  147.4192  154.5232 F       1  UNL1       -0.1659
     36 F         139.8954  146.5414  155.8020 F       1  UNL1       -0.1659
     37 F         137.2548  145.6720  154.6744 F       1  UNL1       -0.1659
@<TRIPOS>BOND
     1    24    25    1
     2    25    26    1
     3    25    27    1
     4    25    16    1
     5    16    17    1
     6    17    18    1
     7    18    19    1
     8    19    20   am
     9    20    21    2
    10    20    10    1
    11    10    11   ar
    12    11    12   ar
    13    12    13   ar
    14    13     1    1
    15     1     2   ar
    16     2     3   ar
    17     3     4   ar
    18     4     5    1
    19     4     6   ar
    20     6    28    1
    21    28    29   ar
    22    29    30   ar
    23    30    31   ar
    24    31    34    1
    25    34    35    1
    26    34    36    1
    27    34    37    1
    28    31    32   ar
    29    32    33   ar
    30     6     7   ar
    31    13    14   ar
    32    14    15   ar
    33    19    22    1
    34    22    23    1
    35    23    16    1
    36    15    10   ar
    37     7     1   ar
    38    33    28   ar
    39     5     8    1
    40     5     9    1
