@<TRIPOS>MOLECULE
*****
 35 39 0 0 0
SMALL
GASTEIGER

@<TRIPOS>ATOM
      1 C         141.9945  142.1360  168.8311 C.ar    1  UNL1        0.1060
      2 C         140.5445  141.7719  168.9533 C.ar    1  UNL1        0.0196
      3 C         139.8592  141.0372  167.8394 C.ar    1  UNL1        0.0160
      4 C         140.6241  140.6667  166.6033 C.ar    1  UNL1        0.0523
      5 C         142.0741  141.0308  166.4811 C.ar    1  UNL1        0.0682
      6 C         142.7593  141.7655  167.5951 C.ar    1  UNL1        0.0241
      7 C         142.8388  140.6603  165.2451 C.2     1  UNL1        0.2508
      8 O         143.8355  139.5400  165.2874 O.2     1  UNL1       -0.2698
      9 N         142.6069  141.4100  163.9668 N.am    1  UNL1       -0.2661
     10 C         143.2933  141.1544  162.6577 C.3     1  UNL1        0.1236
     11 C         142.7585  142.1334  161.6549 C.ar    1  UNL1        0.0338
     12 C         142.8522  142.5805  160.2262 C.ar    1  UNL1        0.0991
     13 N         141.8931  143.7175  160.0325 N.ar    1  UNL1       -0.2265
     14 N         141.2067  143.9731  161.3415 N.ar    1  UNL1       -0.1679
     15 C         141.7416  142.9940  162.3443 C.ar    1  UNL1        0.0981
     16 C         141.6479  142.5470  163.7730 C.3     1  UNL1        0.1414
     17 C         141.6612  144.4672  158.7542 C.ar    1  UNL1        0.1102
     18 C         142.4901  144.1585  157.5427 C.ar    1  UNL1        0.0214
     19 C         142.2582  144.9082  156.2644 C.ar    1  UNL1        0.0017
     20 C         141.1974  145.9666  156.1975 C.ar    1  UNL1        0.0024
     21 C         140.3685  146.2753  157.4090 C.ar    1  UNL1        0.0312
     22 C         140.6004  145.5256  158.6873 C.ar    1  UNL1        0.1577
     23 F         139.7715  145.8343  159.8987 F       1  UNL1       -0.2026
     24 N         139.9389  139.9320  165.4895 N.pl3   1  UNL1       -0.3070
     25 C         138.9093  140.6309  164.6519 C.3     1  UNL1        0.0964
     26 C         138.2241  139.8962  163.5380 C.3     1  UNL1        0.0880
     27 C         138.5684  138.4627  163.2617 C.3     1  UNL1        0.2672
     28 F         138.5533  137.1085  162.6167 F       1  UNL1       -0.2042
     29 F         137.5336  138.6913  162.2001 F       1  UNL1       -0.2042
     30 C         139.5979  137.7638  164.0993 C.3     1  UNL1        0.0880
     31 C         140.2832  138.4985  165.2132 C.3     1  UNL1        0.0964
     32 C         143.3650  143.6054  171.0588 C.3     1  UNL1        0.1816
     33 S         142.6797  142.8707  169.9450 S.O2    1  UNL1        0.0105
     34 O         141.3774  142.9663  170.6831 O.2     1  UNL1       -0.1686
     35 O         143.9820  142.7751  169.2068 O.2     1  UNL1       -0.1686
@<TRIPOS>BOND
     1    32    33    1
     2    33    34    2
     3    33    35    2
     4    33     1    1
     5     1     2   ar
     6     2     3   ar
     7     3     4   ar
     8     4    24    1
     9    24    25    1
    10    25    26    1
    11    26    27    1
    12    27    28    1
    13    27    29    1
    14    27    30    1
    15    30    31    1
    16     4     5   ar
    17     5     7    1
    18     7     8    2
    19     7     9   am
    20     9    10    1
    21    10    11    1
    22    11    12   ar
    23    12    13   ar
    24    13    17    1
    25    17    18   ar
    26    18    19   ar
    27    19    20   ar
    28    20    21   ar
    29    21    22   ar
    30    22    23    1
    31    13    14   ar
    32    14    15   ar
    33    15    16    1
    34     5     6   ar
    35     6     1   ar
    36    31    24    1
    37    16     9    1
    38    15    11   ar
    39    22    17   ar
@<TRIPOS>MOLECULE
*****
 35 39 0 0 0
SMALL
GASTEIGER

@<TRIPOS>ATOM
      1 C         141.9279  140.4980  167.7261 C.ar    1  UNL1        0.1060
      2 C         140.6667  141.3099  167.7412 C.ar    1  UNL1        0.0196
      3 C         140.3256  142.1874  166.5734 C.ar    1  UNL1        0.0160
      4 C         141.2458  142.2531  165.3906 C.ar    1  UNL1        0.0523
      5 C         142.5070  141.4413  165.3755 C.ar    1  UNL1        0.0682
      6 C         142.8481  140.5637  166.5433 C.ar    1  UNL1        0.0241
      7 C         143.4271  141.5070  164.1927 C.2     1  UNL1        0.2508
      8 O         144.6709  142.3431  164.2556 O.2     1  UNL1       -0.2698
      9 N         143.1035  140.7365  162.9471 N.am    1  UNL1       -0.2661
     10 C         143.9240  140.7049  161.6917 C.3     1  UNL1        0.1236
     11 C         143.2301  139.8112  160.7068 C.ar    1  UNL1        0.0338
     12 C         143.3083  139.2394  159.3224 C.ar    1  UNL1        0.0991
     13 N         142.1074  138.3653  159.1134 N.ar    1  UNL1       -0.2265
     14 N         141.2869  138.3969  160.3687 N.ar    1  UNL1       -0.1679
     15 C         141.9808  139.2906  161.3536 C.ar    1  UNL1        0.0981
     16 C         141.9026  139.8624  162.7381 C.3     1  UNL1        0.1414
     17 C         141.7837  137.5948  157.8677 C.ar    1  UNL1        0.1102
     18 C         142.7871  136.6376  157.2960 C.ar    1  UNL1        0.0214
     19 C         142.4635  135.8671  156.0503 C.ar    1  UNL1        0.0017
     20 C         141.1365  136.0539  155.3764 C.ar    1  UNL1        0.0024
     21 C         140.1331  137.0112  155.9482 C.ar    1  UNL1        0.0312
     22 C         140.4567  137.7816  157.1938 C.ar    1  UNL1        0.1577
     23 F         139.4533  138.7389  157.7656 F       1  UNL1       -0.2026
     24 N         140.9047  143.1306  164.2229 N.pl3   1  UNL1       -0.3070
     25 C         139.9961  142.6225  163.1430 C.3     1  UNL1        0.0964
     26 C         139.6550  143.5000  161.9753 C.3     1  UNL1        0.0880
     27 C         140.2225  144.8857  161.8875 C.3     1  UNL1        0.2672
     28 F         140.5089  146.2608  161.3611 F       1  UNL1       -0.2042
     29 F         139.4134  144.8551  160.6247 F       1  UNL1       -0.2042
     30 C         141.1311  145.3939  162.9674 C.3     1  UNL1        0.0880
     31 C         141.4722  144.5164  164.1351 C.3     1  UNL1        0.0964
     32 C         142.6101  138.7429  170.0615 C.3     1  UNL1        0.1816
     33 S         142.2690  139.6205  168.8938 S.O2    1  UNL1        0.0105
     34 O         143.1822  138.8126  168.0199 O.2     1  UNL1       -0.1686
     35 O         141.3559  140.4283  169.7676 O.2     1  UNL1       -0.1686
@<TRIPOS>BOND
     1    32    33    1
     2    33    34    2
     3    33    35    2
     4    33     1    1
     5     1     2   ar
     6     2     3   ar
     7     3     4   ar
     8     4    24    1
     9    24    25    1
    10    25    26    1
    11    26    27    1
    12    27    28    1
    13    27    29    1
    14    27    30    1
    15    30    31    1
    16     4     5   ar
    17     5     7    1
    18     7     8    2
    19     7     9   am
    20     9    10    1
    21    10    11    1
    22    11    12   ar
    23    12    13   ar
    24    13    17    1
    25    17    18   ar
    26    18    19   ar
    27    19    20   ar
    28    20    21   ar
    29    21    22   ar
    30    22    23    1
    31    13    14   ar
    32    14    15   ar
    33    15    16    1
    34     5     6   ar
    35     6     1   ar
    36    31    24    1
    37    16     9    1
    38    15    11   ar
    39    22    17   ar
@<TRIPOS>MOLECULE
*****
 35 39 0 0 0
SMALL
GASTEIGER

@<TRIPOS>ATOM
      1 C         142.0125  141.5887  167.8769 C.ar    1  UNL1        0.1060
      2 C         141.5907  140.1493  167.8961 C.ar    1  UNL1        0.0196
      3 C         140.8993  139.5545  166.7053 C.ar    1  UNL1        0.0160
      4 C         140.6296  140.3990  165.4953 C.ar    1  UNL1        0.0523
      5 C         141.0514  141.8384  165.4761 C.ar    1  UNL1        0.0682
      6 C         141.7428  142.4332  166.6670 C.ar    1  UNL1        0.0241
      7 C         140.7817  142.6828  164.2661 C.2     1  UNL1        0.2508
      8 O         139.6436  143.6599  164.2719 O.2     1  UNL1       -0.2698
      9 N         141.6501  142.5502  163.0503 N.am    1  UNL1       -0.2661
     10 C         141.5030  143.3230  161.7731 C.3     1  UNL1        0.1236
     11 C         142.5801  142.8718  160.8316 C.ar    1  UNL1        0.0338
     12 C         143.1548  143.0706  159.4605 C.ar    1  UNL1        0.0991
     13 N         144.3228  142.1418  159.3083 N.ar    1  UNL1       -0.2265
     14 N         144.4699  141.3690  160.5855 N.ar    1  UNL1       -0.1679
     15 C         143.3928  141.8202  161.5270 C.ar    1  UNL1        0.0981
     16 C         142.8180  141.6214  162.8981 C.3     1  UNL1        0.1414
     17 C         145.1912  142.0092  158.0925 C.ar    1  UNL1        0.1102
     18 C         146.4298  142.8450  157.9606 C.ar    1  UNL1        0.0214
     19 C         147.2982  142.7124  156.7448 C.ar    1  UNL1        0.0017
     20 C         146.9280  141.7439  155.6608 C.ar    1  UNL1        0.0024
     21 C         145.6894  140.9081  155.7927 C.ar    1  UNL1        0.0312
     22 C         144.8211  141.0407  157.0085 C.ar    1  UNL1        0.1577
     23 F         143.5825  140.2048  157.1403 F       1  UNL1       -0.2026
     24 N         139.9382  139.8041  164.3045 N.pl3   1  UNL1       -0.3070
     25 C         138.5325  140.2096  163.9735 C.3     1  UNL1        0.0964
     26 C         137.8410  139.6147  162.7827 C.3     1  UNL1        0.0880
     27 C         138.5553  138.6143  161.9229 C.3     1  UNL1        0.2672
     28 F         138.8123  137.6369  160.8145 F       1  UNL1       -0.2042
     29 F         137.2388  138.6804  161.2069 F       1  UNL1       -0.2042
     30 C         139.9610  138.2089  162.2540 C.3     1  UNL1        0.0880
     31 C         140.6524  138.8038  163.4448 C.3     1  UNL1        0.0964
     32 C         143.3954  142.7785  170.2585 C.3     1  UNL1        0.1816
     33 S         142.7040  142.1836  169.0677 S.O2    1  UNL1        0.0105
     34 O         143.7808  142.7225  168.1733 O.2     1  UNL1       -0.1686
     35 O         141.6271  141.6447  169.9622 O.2     1  UNL1       -0.1686
@<TRIPOS>BOND
     1    32    33    1
     2    33    34    2
     3    33    35    2
     4    33     1    1
     5     1     2   ar
     6     2     3   ar
     7     3     4   ar
     8     4    24    1
     9    24    25    1
    10    25    26    1
    11    26    27    1
    12    27    28    1
    13    27    29    1
    14    27    30    1
    15    30    31    1
    16     4     5   ar
    17     5     7    1
    18     7     8    2
    19     7     9   am
    20     9    10    1
    21    10    11    1
    22    11    12   ar
    23    12    13   ar
    24    13    17    1
    25    17    18   ar
    26    18    19   ar
    27    19    20   ar
    28    20    21   ar
    29    21    22   ar
    30    22    23    1
    31    13    14   ar
    32    14    15   ar
    33    15    16    1
    34     5     6   ar
    35     6     1   ar
    36    31    24    1
    37    16     9    1
    38    15    11   ar
    39    22    17   ar
@<TRIPOS>MOLECULE
*****
 35 39 0 0 0
SMALL
GASTEIGER

@<TRIPOS>ATOM
      1 C         142.1543  140.1968  168.1951 C.ar    1  UNL1        0.1060
      2 C         142.7144  141.5875  168.2415 C.ar    1  UNL1        0.0196
      3 C         142.3437  142.5811  167.1807 C.ar    1  UNL1        0.0160
      4 C         141.4129  142.1839  166.0735 C.ar    1  UNL1        0.0523
      5 C         140.8528  140.7932  166.0271 C.ar    1  UNL1        0.0682
      6 C         141.2236  139.7996  167.0880 C.ar    1  UNL1        0.0241
      7 C         139.9220  140.3960  164.9199 C.2     1  UNL1        0.2508
      8 O         138.4400  140.3900  165.1518 O.2     1  UNL1       -0.2698
      9 N         140.4732  140.0049  163.5808 N.am    1  UNL1       -0.2661
     10 C         139.6702  139.5867  162.3848 C.3     1  UNL1        0.1236
     11 C         140.6249  139.2867  161.2673 C.ar    1  UNL1        0.0338
     12 C         140.7187  138.8428  159.8376 C.ar    1  UNL1        0.0991
     13 N         142.1696  138.8013  159.4594 N.ar    1  UNL1       -0.2265
     14 N         142.9726  139.2195  160.6554 N.ar    1  UNL1       -0.1679
     15 C         142.0179  139.5195  161.7728 C.ar    1  UNL1        0.0981
     16 C         141.9241  139.9634  163.2025 C.3     1  UNL1        0.1414
     17 C         142.7208  138.4102  158.1203 C.ar    1  UNL1        0.1102
     18 C         142.6839  136.9755  157.6840 C.ar    1  UNL1        0.0214
     19 C         143.2350  136.5844  156.3449 C.ar    1  UNL1        0.0017
     20 C         143.8231  137.6280  155.4421 C.ar    1  UNL1        0.0024
     21 C         143.8601  139.0627  155.8784 C.ar    1  UNL1        0.0312
     22 C         143.3089  139.4538  157.2175 C.ar    1  UNL1        0.1577
     23 F         143.3459  140.8885  157.6537 F       1  UNL1       -0.2026
     24 N         141.0421  143.1775  165.0126 N.pl3   1  UNL1       -0.3070
     25 C         139.6910  143.8286  165.0341 C.3     1  UNL1        0.0964
     26 C         139.3203  144.8222  163.9733 C.3     1  UNL1        0.0880
     27 C         140.3007  145.1647  162.8910 C.3     1  UNL1        0.2672
     28 F         140.8820  145.8114  161.6687 F       1  UNL1       -0.2042
     29 F         139.1514  146.0404  162.4880 F       1  UNL1       -0.2042
     30 C         141.6519  144.5137  162.8695 C.3     1  UNL1        0.0880
     31 C         142.0226  143.5200  163.9303 C.3     1  UNL1        0.0964
     32 C         142.8958  138.2096  170.3167 C.3     1  UNL1        0.1816
     33 S         142.5250  139.2032  169.2559 S.O2    1  UNL1        0.0105
     34 O         143.3945  138.4774  168.2723 O.2     1  UNL1       -0.1686
     35 O         141.6556  139.9289  170.2395 O.2     1  UNL1       -0.1686
@<TRIPOS>BOND
     1    32    33    1
     2    33    34    2
     3    33    35    2
     4    33     1    1
     5     1     2   ar
     6     2     3   ar
     7     3     4   ar
     8     4    24    1
     9    24    25    1
    10    25    26    1
    11    26    27    1
    12    27    28    1
    13    27    29    1
    14    27    30    1
    15    30    31    1
    16     4     5   ar
    17     5     7    1
    18     7     8    2
    19     7     9   am
    20     9    10    1
    21    10    11    1
    22    11    12   ar
    23    12    13   ar
    24    13    17    1
    25    17    18   ar
    26    18    19   ar
    27    19    20   ar
    28    20    21   ar
    29    21    22   ar
    30    22    23    1
    31    13    14   ar
    32    14    15   ar
    33    15    16    1
    34     5     6   ar
    35     6     1   ar
    36    31    24    1
    37    16     9    1
    38    15    11   ar
    39    22    17   ar
@<TRIPOS>MOLECULE
*****
 35 39 0 0 0
SMALL
GASTEIGER

@<TRIPOS>ATOM
      1 C         138.9127  139.4191  166.2966 C.ar    1  UNL1        0.1060
      2 C         140.1369  139.8560  167.0452 C.ar    1  UNL1        0.0196
      3 C         141.1009  140.8150  166.4118 C.ar    1  UNL1        0.0160
      4 C         140.8406  141.3369  165.0297 C.ar    1  UNL1        0.0523
      5 C         139.6164  140.8999  164.2812 C.ar    1  UNL1        0.0682
      6 C         138.6524  139.9410  164.9147 C.ar    1  UNL1        0.0241
      7 C         139.3562  141.4219  162.8992 C.2     1  UNL1        0.2508
      8 O         138.6342  142.7235  162.7127 O.2     1  UNL1       -0.2698
      9 N         139.8179  140.6423  161.7038 N.am    1  UNL1       -0.2661
     10 C         139.6305  141.0358  160.2685 C.3     1  UNL1        0.1236
     11 C         140.2449  139.9690  159.4114 C.ar    1  UNL1        0.0338
     12 C         140.5088  139.5529  157.9947 C.ar    1  UNL1        0.0991
     13 N         141.2390  138.2429  158.0247 N.ar    1  UNL1       -0.2265
     14 N         141.4263  137.8494  159.4600 N.ar    1  UNL1       -0.1679
     15 C         140.8119  138.9163  160.3171 C.ar    1  UNL1        0.0981
     16 C         140.5480  139.3324  161.7338 C.3     1  UNL1        0.1414
     17 C         141.7007  137.4633  156.8293 C.ar    1  UNL1        0.1102
     18 C         143.1672  137.3178  156.5495 C.ar    1  UNL1        0.0214
     19 C         143.6289  136.5382  155.3541 C.ar    1  UNL1        0.0017
     20 C         142.6241  135.9042  154.4385 C.ar    1  UNL1        0.0024
     21 C         141.1576  136.0497  154.7183 C.ar    1  UNL1        0.0312
     22 C         140.6959  136.8292  155.9137 C.ar    1  UNL1        0.1577
     23 F         139.2294  136.9747  156.1934 F       1  UNL1       -0.2026
     24 N         141.8046  142.2958  164.3963 N.pl3   1  UNL1       -0.3070
     25 C         141.6621  143.7698  164.6349 C.3     1  UNL1        0.0964
     26 C         142.6261  144.7287  164.0015 C.3     1  UNL1        0.0880
     27 C         143.7326  144.2136  163.1296 C.3     1  UNL1        0.2672
     28 F         144.9346  144.2101  162.2322 F       1  UNL1       -0.2042
     29 F         144.0076  145.6865  163.0565 F       1  UNL1       -0.2042
     30 C         143.8751  142.7396  162.8910 C.3     1  UNL1        0.0880
     31 C         142.9111  141.7807  163.5244 C.3     1  UNL1        0.0964
     32 C         136.9847  137.5012  167.5634 C.3     1  UNL1        0.1816
     33 S         137.9487  138.4602  166.9300 S.O2    1  UNL1        0.0105
     34 O         137.9360  139.2957  168.1757 O.2     1  UNL1       -0.1686
     35 O         137.9614  137.6246  165.6843 O.2     1  UNL1       -0.1686
@<TRIPOS>BOND
     1    32    33    1
     2    33    34    2
     3    33    35    2
     4    33     1    1
     5     1     2   ar
     6     2     3   ar
     7     3     4   ar
     8     4    24    1
     9    24    25    1
    10    25    26    1
    11    26    27    1
    12    27    28    1
    13    27    29    1
    14    27    30    1
    15    30    31    1
    16     4     5   ar
    17     5     7    1
    18     7     8    2
    19     7     9   am
    20     9    10    1
    21    10    11    1
    22    11    12   ar
    23    12    13   ar
    24    13    17    1
    25    17    18   ar
    26    18    19   ar
    27    19    20   ar
    28    20    21   ar
    29    21    22   ar
    30    22    23    1
    31    13    14   ar
    32    14    15   ar
    33    15    16    1
    34     5     6   ar
    35     6     1   ar
    36    31    24    1
    37    16     9    1
    38    15    11   ar
    39    22    17   ar
@<TRIPOS>MOLECULE
*****
 35 39 0 0 0
SMALL
GASTEIGER

@<TRIPOS>ATOM
      1 C         144.8544  141.6009  157.3505 C.ar    1  UNL1        0.1060
      2 C         144.2458  140.2925  156.9409 C.ar    1  UNL1        0.0196
      3 C         142.9475  139.8472  157.5459 C.ar    1  UNL1        0.0160
      4 C         142.2577  140.7104  158.5604 C.ar    1  UNL1        0.0523
      5 C         142.8663  142.0188  158.9700 C.ar    1  UNL1        0.0682
      6 C         144.1647  142.4640  158.3650 C.ar    1  UNL1        0.0241
      7 C         142.1765  142.8818  159.9845 C.2     1  UNL1        0.2508
      8 O         141.3744  144.0683  159.5387 O.2     1  UNL1       -0.2698
      9 N         142.2889  142.5584  161.4449 N.am    1  UNL1       -0.2661
     10 C         141.6580  143.3256  162.5690 C.3     1  UNL1        0.1236
     11 C         142.0311  142.6523  163.8565 C.ar    1  UNL1        0.0338
     12 C         141.8718  142.7103  165.3468 C.ar    1  UNL1        0.0991
     13 N         142.6347  141.5629  165.9395 N.ar    1  UNL1       -0.2265
     14 N         143.2655  140.7957  164.8155 N.ar    1  UNL1       -0.1679
     15 C         142.8925  141.4690  163.5280 C.ar    1  UNL1        0.0981
     16 C         143.0518  141.4110  162.0376 C.3     1  UNL1        0.1414
     17 C         142.7471  141.2395  167.3999 C.ar    1  UNL1        0.1102
     18 C         143.1698  142.3002  168.3727 C.ar    1  UNL1        0.0214
     19 C         143.2822  141.9767  169.8331 C.ar    1  UNL1        0.0017
     20 C         142.9718  140.5926  170.3207 C.ar    1  UNL1        0.0024
     21 C         142.5490  139.5319  169.3480 C.ar    1  UNL1        0.0312
     22 C         142.4366  139.8553  167.8876 C.ar    1  UNL1        0.1577
     23 F         142.0139  138.7946  166.9149 F       1  UNL1       -0.2026
     24 N         140.9594  140.2651  159.1654 N.pl3   1  UNL1       -0.3070
     25 C         140.9388  139.1291  160.1447 C.3     1  UNL1        0.0964
     26 C         139.6404  138.6838  160.7497 C.3     1  UNL1        0.0880
     27 C         138.3626  139.3745  160.3753 C.3     1  UNL1        0.2672
     28 F         136.9014  139.7112  160.3363 F       1  UNL1       -0.2042
     29 F         137.8346  138.3554  161.3411 F       1  UNL1       -0.2042
     30 C         138.3832  140.5104  159.3960 C.3     1  UNL1        0.0880
     31 C         139.6816  140.9558  158.7910 C.3     1  UNL1        0.0964
     32 C         147.4511  142.4915  156.1406 C.3     1  UNL1        0.1816
     33 S         146.1528  142.0462  156.7456 S.O2    1  UNL1        0.0105
     34 O         145.8444  141.2607  155.5054 O.2     1  UNL1       -0.1686
     35 O         146.4612  142.8317  157.9857 O.2     1  UNL1       -0.1686
@<TRIPOS>BOND
     1    32    33    1
     2    33    34    2
     3    33    35    2
     4    33     1    1
     5     1     2   ar
     6     2     3   ar
     7     3     4   ar
     8     4    24    1
     9    24    25    1
    10    25    26    1
    11    26    27    1
    12    27    28    1
    13    27    29    1
    14    27    30    1
    15    30    31    1
    16     4     5   ar
    17     5     7    1
    18     7     8    2
    19     7     9   am
    20     9    10    1
    21    10    11    1
    22    11    12   ar
    23    12    13   ar
    24    13    17    1
    25    17    18   ar
    26    18    19   ar
    27    19    20   ar
    28    20    21   ar
    29    21    22   ar
    30    22    23    1
    31    13    14   ar
    32    14    15   ar
    33    15    16    1
    34     5     6   ar
    35     6     1   ar
    36    31    24    1
    37    16     9    1
    38    15    11   ar
    39    22    17   ar
@<TRIPOS>MOLECULE
*****
 35 39 0 0 0
SMALL
GASTEIGER

@<TRIPOS>ATOM
      1 C         140.6978  141.6408  168.2382 C.ar    1  UNL1        0.1060
      2 C         140.3000  140.2155  167.9926 C.ar    1  UNL1        0.0196
      3 C         140.7707  139.5077  166.7567 C.ar    1  UNL1        0.0160
      4 C         141.6393  140.2254  165.7664 C.ar    1  UNL1        0.0523
      5 C         142.0370  141.6506  166.0119 C.ar    1  UNL1        0.0682
      6 C         141.5662  142.3584  167.2479 C.ar    1  UNL1        0.0241
      7 C         142.9055  142.3681  165.0215 C.2     1  UNL1        0.2508
      8 O         144.3374  142.6646  165.3560 O.2     1  UNL1       -0.2698
      9 N         142.3422  142.7892  163.6966 N.am    1  UNL1       -0.2661
     10 C         143.0855  143.5103  162.6115 C.3     1  UNL1        0.1236
     11 C         142.1392  143.7299  161.4685 C.ar    1  UNL1        0.0338
     12 C         142.0138  144.3112  160.0914 C.ar    1  UNL1        0.0991
     13 N         140.6082  144.0851  159.6191 N.ar    1  UNL1       -0.2265
     14 N         139.8649  143.3640  160.7042 N.ar    1  UNL1       -0.1679
     15 C         140.8112  143.1444  161.8473 C.ar    1  UNL1        0.0981
     16 C         140.9366  142.5631  163.2243 C.3     1  UNL1        0.1414
     17 C         140.0448  144.5061  158.2942 C.ar    1  UNL1        0.1102
     18 C         140.2573  145.9063  157.7997 C.ar    1  UNL1        0.0214
     19 C         139.6939  146.3273  156.4749 C.ar    1  UNL1        0.0017
     20 C         138.9181  145.3483  155.6445 C.ar    1  UNL1        0.0024
     21 C         138.7057  143.9481  156.1390 C.ar    1  UNL1        0.0312
     22 C         139.2690  143.5271  157.4639 C.ar    1  UNL1        0.1577
     23 F         139.0566  142.1269  157.9583 F       1  UNL1       -0.2026
     24 N         142.1100  139.5176  164.5305 N.pl3   1  UNL1       -0.3070
     25 C         143.5785  139.3891  164.2531 C.3     1  UNL1        0.0964
     26 C         144.0492  138.6813  163.0172 C.3     1  UNL1        0.0880
     27 C         143.0515  138.1020  162.0587 C.3     1  UNL1        0.2672
     28 F         142.4968  137.3924  160.8591 F       1  UNL1       -0.2042
     29 F         144.3274  137.7271  161.3647 F       1  UNL1       -0.2042
     30 C         141.5830  138.2304  162.3360 C.3     1  UNL1        0.0880
     31 C         141.1122  138.9382  163.5719 C.3     1  UNL1        0.0964
     32 C         139.7563  143.0564  170.7100 C.3     1  UNL1        0.1816
     33 S         140.2270  142.3486  169.4741 S.O2    1  UNL1        0.0105
     34 O         140.3263  141.0664  170.2462 O.2     1  UNL1       -0.1686
     35 O         140.1277  143.6308  168.7019 O.2     1  UNL1       -0.1686
@<TRIPOS>BOND
     1    32    33    1
     2    33    34    2
     3    33    35    2
     4    33     1    1
     5     1     2   ar
     6     2     3   ar
     7     3     4   ar
     8     4    24    1
     9    24    25    1
    10    25    26    1
    11    26    27    1
    12    27    28    1
    13    27    29    1
    14    27    30    1
    15    30    31    1
    16     4     5   ar
    17     5     7    1
    18     7     8    2
    19     7     9   am
    20     9    10    1
    21    10    11    1
    22    11    12   ar
    23    12    13   ar
    24    13    17    1
    25    17    18   ar
    26    18    19   ar
    27    19    20   ar
    28    20    21   ar
    29    21    22   ar
    30    22    23    1
    31    13    14   ar
    32    14    15   ar
    33    15    16    1
    34     5     6   ar
    35     6     1   ar
    36    31    24    1
    37    16     9    1
    38    15    11   ar
    39    22    17   ar
@<TRIPOS>MOLECULE
*****
 35 39 0 0 0
SMALL
GASTEIGER

@<TRIPOS>ATOM
      1 C         142.9384  137.8426  156.6212 C.ar    1  UNL1        0.1060
      2 C         143.7063  139.0729  156.2382 C.ar    1  UNL1        0.0196
      3 C         143.2815  140.4143  156.7580 C.ar    1  UNL1        0.0160
      4 C         142.0887  140.5253  157.6608 C.ar    1  UNL1        0.0523
      5 C         141.3208  139.2950  158.0438 C.ar    1  UNL1        0.0682
      6 C         141.7457  137.9536  157.5240 C.ar    1  UNL1        0.0241
      7 C         140.1281  139.4061  158.9466 C.2     1  UNL1        0.2508
      8 O         138.7476  139.4594  158.3623 O.2     1  UNL1       -0.2698
      9 N         140.3158  139.4638  160.4337 N.am    1  UNL1       -0.2661
     10 C         139.2243  139.5745  161.4566 C.3     1  UNL1        0.1236
     11 C         139.8620  139.6001  162.8141 C.ar    1  UNL1        0.0338
     12 C         139.5816  139.6843  164.2852 C.ar    1  UNL1        0.0991
     13 N         140.8939  139.6414  165.0104 N.ar    1  UNL1       -0.2265
     14 N         141.9854  139.5306  163.9876 N.ar    1  UNL1       -0.1679
     15 C         141.3477  139.5051  162.6300 C.ar    1  UNL1        0.0981
     16 C         141.6281  139.4209  161.1589 C.3     1  UNL1        0.1414
     17 C         141.0816  139.6991  166.4975 C.ar    1  UNL1        0.1102
     18 C         139.9471  140.1265  167.3807 C.ar    1  UNL1        0.0214
     19 C         140.1348  140.1842  168.8678 C.ar    1  UNL1        0.0017
     20 C         141.4572  139.8145  169.4717 C.ar    1  UNL1        0.0024
     21 C         142.5918  139.3871  168.5884 C.ar    1  UNL1        0.0312
     22 C         142.4040  139.3294  167.1014 C.ar    1  UNL1        0.1577
     23 F         143.5387  138.9020  166.2182 F       1  UNL1       -0.2026
     24 N         141.6638  141.8667  158.1806 N.pl3   1  UNL1       -0.3070
     25 C         140.5792  142.6324  157.4825 C.3     1  UNL1        0.0964
     26 C         140.1544  143.9738  158.0023 C.3     1  UNL1        0.0880
     27 C         140.8141  144.5495  159.2202 C.3     1  UNL1        0.2672
     28 F         141.1360  145.5066  160.3294 F       1  UNL1       -0.2042
     29 F         139.8413  145.6476  158.9073 F       1  UNL1       -0.2042
     30 C         141.8987  143.7838  159.9183 C.3     1  UNL1        0.0880
     31 C         142.3235  142.4424  159.3985 C.3     1  UNL1        0.0964
     32 C         143.7881  135.1598  155.5817 C.3     1  UNL1        0.1816
     33 S         143.3633  136.5012  156.1014 S.O2    1  UNL1        0.0105
     34 O         144.6930  137.0741  155.7097 O.2     1  UNL1       -0.1686
     35 O         142.0335  135.9282  156.4932 O.2     1  UNL1       -0.1686
@<TRIPOS>BOND
     1    32    33    1
     2    33    34    2
     3    33    35    2
     4    33     1    1
     5     1     2   ar
     6     2     3   ar
     7     3     4   ar
     8     4    24    1
     9    24    25    1
    10    25    26    1
    11    26    27    1
    12    27    28    1
    13    27    29    1
    14    27    30    1
    15    30    31    1
    16     4     5   ar
    17     5     7    1
    18     7     8    2
    19     7     9   am
    20     9    10    1
    21    10    11    1
    22    11    12   ar
    23    12    13   ar
    24    13    17    1
    25    17    18   ar
    26    18    19   ar
    27    19    20   ar
    28    20    21   ar
    29    21    22   ar
    30    22    23    1
    31    13    14   ar
    32    14    15   ar
    33    15    16    1
    34     5     6   ar
    35     6     1   ar
    36    31    24    1
    37    16     9    1
    38    15    11   ar
    39    22    17   ar
@<TRIPOS>MOLECULE
*****
 35 39 0 0 0
SMALL
GASTEIGER

@<TRIPOS>ATOM
      1 C         141.7743  137.8158  156.9476 C.ar    1  UNL1        0.1060
      2 C         142.7510  138.8842  156.5544 C.ar    1  UNL1        0.0196
      3 C         142.5187  140.3048  156.9762 C.ar    1  UNL1        0.0160
      4 C         141.3097  140.6569  157.7914 C.ar    1  UNL1        0.0523
      5 C         140.3331  139.5885  158.1846 C.ar    1  UNL1        0.0682
      6 C         140.5654  138.1679  157.7627 C.ar    1  UNL1        0.0241
      7 C         139.1241  139.9407  158.9997 C.2     1  UNL1        0.2508
      8 O         137.7873  140.0853  158.3348 O.2     1  UNL1       -0.2698
      9 N         139.2520  140.1484  160.4797 N.am    1  UNL1       -0.2661
     10 C         138.1381  140.5026  161.4199 C.3     1  UNL1        0.1236
     11 C         138.7139  140.6115  162.8007 C.ar    1  UNL1        0.0338
     12 C         138.3814  140.8976  164.2351 C.ar    1  UNL1        0.0991
     13 N         139.6457  140.7877  165.0348 N.ar    1  UNL1       -0.2265
     14 N         140.7596  140.4336  164.0947 N.ar    1  UNL1       -0.1679
     15 C         140.1837  140.3247  162.7138 C.ar    1  UNL1        0.0981
     16 C         140.5162  140.0385  161.2795 C.3     1  UNL1        0.1414
     17 C         139.7735  140.9954  166.5149 C.ar    1  UNL1        0.1102
     18 C         140.4296  142.2361  167.0442 C.ar    1  UNL1        0.0214
     19 C         140.5575  142.4438  168.5242 C.ar    1  UNL1        0.0017
     20 C         140.0293  141.4108  169.4749 C.ar    1  UNL1        0.0024
     21 C         139.3732  140.1701  168.9456 C.ar    1  UNL1        0.0312
     22 C         139.2453  139.9624  167.4655 C.ar    1  UNL1        0.1577
     23 F         138.5891  138.7216  166.9363 F       1  UNL1       -0.2026
     24 N         141.0775  142.0775  158.2132 N.pl3   1  UNL1       -0.3070
     25 C         141.7446  142.6125  159.4456 C.3     1  UNL1        0.0964
     26 C         141.5123  144.0331  159.8674 C.3     1  UNL1        0.0880
     27 C         140.6130  144.9187  159.0570 C.3     1  UNL1        0.2672
     28 F         139.8537  146.1371  158.6221 F       1  UNL1       -0.2042
     29 F         141.0164  145.8769  160.1383 F       1  UNL1       -0.2042
     30 C         139.9458  144.3837  157.8246 C.3     1  UNL1        0.0880
     31 C         140.1781  142.9631  157.4028 C.3     1  UNL1        0.0964
     32 C         142.2388  134.9746  156.1039 C.3     1  UNL1        0.1816
     33 S         142.0066  136.3952  156.5257 S.O2    1  UNL1        0.0105
     34 O         143.3769  136.4385  157.1343 O.2     1  UNL1       -0.1686
     35 O         140.6363  136.3519  155.9172 O.2     1  UNL1       -0.1686
@<TRIPOS>BOND
     1    32    33    1
     2    33    34    2
     3    33    35    2
     4    33     1    1
     5     1     2   ar
     6     2     3   ar
     7     3     4   ar
     8     4    24    1
     9    24    25    1
    10    25    26    1
    11    26    27    1
    12    27    28    1
    13    27    29    1
    14    27    30    1
    15    30    31    1
    16     4     5   ar
    17     5     7    1
    18     7     8    2
    19     7     9   am
    20     9    10    1
    21    10    11    1
    22    11    12   ar
    23    12    13   ar
    24    13    17    1
    25    17    18   ar
    26    18    19   ar
    27    19    20   ar
    28    20    21   ar
    29    21    22   ar
    30    22    23    1
    31    13    14   ar
    32    14    15   ar
    33    15    16    1
    34     5     6   ar
    35     6     1   ar
    36    31    24    1
    37    16     9    1
    38    15    11   ar
    39    22    17   ar
