@<TRIPOS>MOLECULE
*****
 41 46 0 0 0
SMALL
GASTEIGER

@<TRIPOS>ATOM
      1 N         142.7841  142.0217  166.8507 N.am    1  UNL1       -0.2684
      2 C         141.6085  141.0940  166.9364 C.3     1  UNL1        0.1205
      3 C         140.7786  140.3387  165.9410 C.ar    1  UNL1        0.0005
      4 C         139.7595  139.6055  166.7619 C.ar    1  UNL1        0.0205
      5 C         138.7424  138.7319  166.0895 C.ar    1  UNL1        0.1524
      6 N         138.7444  138.5915  164.5961 N.ar    1  UNL1       -0.2399
      7 C         139.7634  139.3246  163.7751 C.ar    1  UNL1        0.0983
      8 C         140.7805  140.1982  164.4476 C.ar    1  UNL1        0.0188
      9 C         141.6132  140.7548  163.3310 C.2     1  UNL1        0.0527
     10 C         141.0271  140.1694  162.0805 C.2     1  UNL1        0.1911
     11 N         141.6167  140.5115  160.7444 N.2     1  UNL1       -0.0723
     12 C         142.7923  141.4392  160.6587 C.cat   1  UNL1        0.3804
     13 N         143.3784  142.0247  161.9091 N.pl3   1  UNL1       -0.1554
     14 C         144.5340  142.9625  162.0970 C.2     1  UNL1        0.2413
     15 N         144.6855  143.2228  163.5664 N.2     1  UNL1       -0.2277
     16 C         143.6188  142.4378  164.2407 C.3     1  UNL1        0.2204
     17 C         143.6168  142.5783  165.7341 C.2     1  UNL1        0.2521
     18 O         144.7022  143.4891  166.2264 O.2     1  UNL1       -0.2726
     19 C         142.7889  141.6825  163.2453 C.3     1  UNL1        0.1964
     20 C         137.7232  137.9987  166.9104 C.3     1  UNL1        0.4348
     21 F         136.7041  137.2655  167.7312 F       1  UNL1       -0.1644
     22 F         137.7461  136.8662  165.9272 F       1  UNL1       -0.1644
     23 F         137.7004  139.1313  167.8936 F       1  UNL1       -0.1644
     24 N         143.3818  141.7814  159.3224 N.pl3   1  UNL1       -0.2203
     25 H         143.6331  141.0639  158.6970 H       1  UNL1        0.2456
     26 C         143.5883  143.2168  158.9392 C.3     1  UNL1        0.1927
     27 C         142.4345  144.0320  158.4351 C.ar    1  UNL1        0.0412
     28 C         142.2136  144.1869  156.9595 C.ar    1  UNL1        0.1391
     29 F         143.1466  143.5266  155.9881 F       1  UNL1       -0.2044
     30 C         141.0598  145.0021  156.4554 C.ar    1  UNL1        0.0325
     31 C         140.1269  145.6624  157.4268 C.ar    1  UNL1        0.0389
     32 C         140.3478  145.5075  158.9023 C.ar    1  UNL1        0.1346
     33 C         141.5015  144.6923  159.4065 C.ar    1  UNL1        0.0168
     34 C         141.4671  144.7179  160.9058 C.3     1  UNL1        0.0766
     35 C         140.2920  145.5488  161.3284 C.3     1  UNL1        0.2101
     36 O         139.6002  146.0368  160.0901 O.3     1  UNL1       -0.4754
     37 C         143.2321  142.5064  168.1977 C.3     1  UNL1        0.1603
     38 C         141.7312  141.6868  170.6624 C.3     1  UNL1        0.0740
     39 C         142.4816  142.0967  169.4300 C.3     1  UNL1        0.2820
     40 F         143.3911  140.9148  169.5909 F       1  UNL1       -0.2025
     41 F         141.5721  143.2786  169.2692 F       1  UNL1       -0.2025
@<TRIPOS>BOND
     1    38    39    1
     2    39    40    1
     3    39    41    1
     4    39    37    1
     5    37     1    1
     6     1     2    1
     7     2     3    1
     8     3     4   ar
     9     4     5   ar
    10     5    20    1
    11    20    21    1
    12    20    22    1
    13    20    23    1
    14     5     6   ar
    15     6     7   ar
    16     7     8   ar
    17     8     9    1
    18     9    10    2
    19    10    11    1
    20    11    12    2
    21    12    24    1
    22    24    26    1
    23    26    27    1
    24    27    28   ar
    25    28    29    1
    26    28    30   ar
    27    30    31   ar
    28    31    32   ar
    29    32    33   ar
    30    33    34    1
    31    34    35    1
    32    35    36    1
    33    12    13    1
    34    13    14    1
    35    14    15    2
    36    15    16    1
    37    16    17    1
    38    17    18    2
    39    16    19    1
    40    17     1   am
    41     8     3   ar
    42    19     9    1
    43    33    27   ar
    44    19    13    1
    45    36    32    1
    46    24    25    1
@<TRIPOS>MOLECULE
*****
 41 46 0 0 0
SMALL
GASTEIGER

@<TRIPOS>ATOM
      1 N         138.9676  141.8390  162.0626 N.am    1  UNL1       -0.2684
      2 C         140.1592  142.4784  162.7114 C.3     1  UNL1        0.1205
      3 C         141.6458  142.3636  162.5465 C.ar    1  UNL1        0.0005
      4 C         142.2225  143.3182  163.5494 C.ar    1  UNL1        0.0205
      5 C         143.7098  143.4711  163.6703 C.ar    1  UNL1        0.1524
      6 N         144.6203  142.6694  162.7881 N.ar    1  UNL1       -0.2399
      7 C         144.0435  141.7148  161.7851 C.ar    1  UNL1        0.0983
      8 C         142.5563  141.5619  161.6643 C.ar    1  UNL1        0.0188
      9 C         142.3574  140.5428  160.5817 C.2     1  UNL1        0.0527
     10 C         143.7418  140.1682  160.1421 C.2     1  UNL1        0.1911
     11 N         143.9344  139.1542  159.0537 N.2     1  UNL1       -0.0723
     12 C         142.7427  138.5148  158.4049 C.cat   1  UNL1        0.3804
     13 N         141.3584  138.8894  158.8444 N.pl3   1  UNL1       -0.1554
     14 C         140.0207  138.4068  158.3672 C.2     1  UNL1        0.2413
     15 N         138.9625  139.1182  159.1571 N.2     1  UNL1       -0.2277
     16 C         139.6792  140.0182  160.0978 C.3     1  UNL1        0.2204
     17 C         138.7687  140.8199  160.9800 C.2     1  UNL1        0.2521
     18 O         137.3193  140.5360  160.7181 O.2     1  UNL1       -0.2726
     19 C         141.1657  139.9034  159.9328 C.3     1  UNL1        0.1964
     20 C         144.2866  144.4257  164.6733 C.3     1  UNL1        0.4348
     21 F         144.8634  145.3804  165.6763 F       1  UNL1       -0.1644
     22 F         143.5341  145.5539  164.0323 F       1  UNL1       -0.1644
     23 F         145.0392  143.2976  165.3143 F       1  UNL1       -0.1644
     24 N         142.9354  137.5007  157.3165 N.pl3   1  UNL1       -0.2203
     25 H         143.2342  137.7879  156.4234 H       1  UNL1        0.2456
     26 C         142.6730  136.0492  157.5887 C.3     1  UNL1        0.1927
     27 C         142.6675  135.0631  156.4583 C.ar    1  UNL1        0.0412
     28 C         141.8179  135.3144  155.2479 C.ar    1  UNL1        0.1391
     29 F         140.9737  136.5518  155.1679 F       1  UNL1       -0.2044
     30 C         141.8125  134.3284  154.1176 C.ar    1  UNL1        0.0325
     31 C         142.6566  133.0911  154.1977 C.ar    1  UNL1        0.0389
     32 C         143.5062  132.8398  155.4080 C.ar    1  UNL1        0.1346
     33 C         143.5117  133.8258  156.5384 C.ar    1  UNL1        0.0168
     34 C         144.4434  133.3131  157.5962 C.3     1  UNL1        0.0766
     35 C         145.0138  132.0103  157.1197 C.3     1  UNL1        0.2101
     36 O         144.4346  131.7177  155.7673 O.3     1  UNL1       -0.4754
     37 C         137.6704  142.3350  162.6293 C.3     1  UNL1        0.1603
     38 C         137.6773  144.3461  164.8554 C.3     1  UNL1        0.0740
     39 C         137.6738  143.3405  163.7423 C.3     1  UNL1        0.2820
     40 F         137.7311  142.2283  164.7470 F       1  UNL1       -0.2025
     41 F         137.6166  144.4529  162.7376 F       1  UNL1       -0.2025
@<TRIPOS>BOND
     1    38    39    1
     2    39    40    1
     3    39    41    1
     4    39    37    1
     5    37     1    1
     6     1     2    1
     7     2     3    1
     8     3     4   ar
     9     4     5   ar
    10     5    20    1
    11    20    21    1
    12    20    22    1
    13    20    23    1
    14     5     6   ar
    15     6     7   ar
    16     7     8   ar
    17     8     9    1
    18     9    10    2
    19    10    11    1
    20    11    12    2
    21    12    24    1
    22    24    26    1
    23    26    27    1
    24    27    28   ar
    25    28    29    1
    26    28    30   ar
    27    30    31   ar
    28    31    32   ar
    29    32    33   ar
    30    33    34    1
    31    34    35    1
    32    35    36    1
    33    12    13    1
    34    13    14    1
    35    14    15    2
    36    15    16    1
    37    16    17    1
    38    17    18    2
    39    16    19    1
    40    17     1   am
    41     8     3   ar
    42    19     9    1
    43    33    27   ar
    44    19    13    1
    45    36    32    1
    46    24    25    1
@<TRIPOS>MOLECULE
*****
 41 46 0 0 0
SMALL
GASTEIGER

@<TRIPOS>ATOM
      1 N         142.8024  142.1137  167.2052 N.am    1  UNL1       -0.2684
      2 C         141.5934  141.2319  167.3075 C.3     1  UNL1        0.1205
      3 C         140.6270  140.6387  166.3254 C.ar    1  UNL1        0.0005
      4 C         139.6587  139.8535  167.1595 C.ar    1  UNL1        0.0205
      5 C         138.5329  139.1113  166.5025 C.ar    1  UNL1        0.1524
      6 N         138.3754  139.1543  165.0114 N.ar    1  UNL1       -0.2399
      7 C         139.3437  139.9396  164.1773 C.ar    1  UNL1        0.0983
      8 C         140.4695  140.6818  164.8343 C.ar    1  UNL1        0.0188
      9 C         141.2131  141.3358  163.7076 C.2     1  UNL1        0.0527
     10 C         140.4722  140.9322  162.4674 C.2     1  UNL1        0.1911
     11 N         140.9403  141.4104  161.1250 N.2     1  UNL1       -0.0723
     12 C         142.1494  142.2923  161.0228 C.cat   1  UNL1        0.3804
     13 N         142.8903  142.6959  162.2629 N.pl3   1  UNL1       -0.1554
     14 C         144.1078  143.5552  162.4342 C.2     1  UNL1        0.2413
     15 N         144.4218  143.6276  163.8991 N.2     1  UNL1       -0.2277
     16 C         143.3885  142.8109  164.5874 C.3     1  UNL1        0.2204
     17 C         143.5460  142.7678  166.0785 C.2     1  UNL1        0.2521
     18 O         144.7233  143.5661  166.5546 O.2     1  UNL1       -0.2726
     19 C         142.4222  142.2177  163.6053 C.3     1  UNL1        0.1964
     20 C         137.5646  138.3260  167.3366 C.3     1  UNL1        0.4348
     21 F         136.5963  137.5407  168.1706 F       1  UNL1       -0.1644
     22 F         137.4196  137.3267  166.2274 F       1  UNL1       -0.1644
     23 F         137.7095  139.3252  168.4458 F       1  UNL1       -0.1644
     24 N         142.6175  142.7705  159.6803 N.pl3   1  UNL1       -0.2203
     25 H         142.3486  143.6593  159.3531 H       1  UNL1        0.2456
     26 C         143.4952  141.8946  158.8363 C.3     1  UNL1        0.1927
     27 C         143.0321  140.5223  158.4459 C.ar    1  UNL1        0.0412
     28 C         142.3314  140.3115  157.1364 C.ar    1  UNL1        0.1391
     29 F         142.0938  141.4731  156.2175 F       1  UNL1       -0.2044
     30 C         141.8683  138.9393  156.7460 C.ar    1  UNL1        0.0325
     31 C         142.1059  137.7779  157.6649 C.ar    1  UNL1        0.0389
     32 C         142.8066  137.9886  158.9743 C.ar    1  UNL1        0.1346
     33 C         143.2697  139.3609  159.3648 C.ar    1  UNL1        0.0168
     34 C         143.9280  139.2628  160.7090 C.3     1  UNL1        0.0766
     35 C         143.8718  137.8301  161.1494 C.3     1  UNL1        0.2101
     36 O         143.1787  137.0426  160.0773 O.3     1  UNL1       -0.4754
     37 C         143.4106  142.4114  168.5436 C.3     1  UNL1        0.1603
     38 C         141.8849  141.8016  171.0536 C.3     1  UNL1        0.0740
     39 C         142.6478  142.1065  169.7986 C.3     1  UNL1        0.2820
     40 F         143.4051  140.8203  169.9465 F       1  UNL1       -0.2025
     41 F         141.8903  143.3928  169.6508 F       1  UNL1       -0.2025
@<TRIPOS>BOND
     1    38    39    1
     2    39    40    1
     3    39    41    1
     4    39    37    1
     5    37     1    1
     6     1     2    1
     7     2     3    1
     8     3     4   ar
     9     4     5   ar
    10     5    20    1
    11    20    21    1
    12    20    22    1
    13    20    23    1
    14     5     6   ar
    15     6     7   ar
    16     7     8   ar
    17     8     9    1
    18     9    10    2
    19    10    11    1
    20    11    12    2
    21    12    24    1
    22    24    26    1
    23    26    27    1
    24    27    28   ar
    25    28    29    1
    26    28    30   ar
    27    30    31   ar
    28    31    32   ar
    29    32    33   ar
    30    33    34    1
    31    34    35    1
    32    35    36    1
    33    12    13    1
    34    13    14    1
    35    14    15    2
    36    15    16    1
    37    16    17    1
    38    17    18    2
    39    16    19    1
    40    17     1   am
    41     8     3   ar
    42    19     9    1
    43    33    27   ar
    44    19    13    1
    45    36    32    1
    46    24    25    1
@<TRIPOS>MOLECULE
*****
 41 46 0 0 0
SMALL
GASTEIGER

@<TRIPOS>ATOM
      1 N         139.2543  143.3028  161.9091 N.am    1  UNL1       -0.2684
      2 C         139.0068  142.1775  162.8696 C.3     1  UNL1        0.1205
      3 C         139.0006  140.6807  162.7708 C.ar    1  UNL1        0.0005
      4 C         138.6669  140.2019  164.1526 C.ar    1  UNL1        0.0205
      5 C         138.5719  138.7317  164.4343 C.ar    1  UNL1        0.1524
      6 N         138.8105  137.7403  163.3343 N.ar    1  UNL1       -0.2399
      7 C         139.1442  138.2191  161.9525 C.ar    1  UNL1        0.0983
      8 C         139.2392  139.6893  161.6708 C.ar    1  UNL1        0.0188
      9 C         139.5830  139.7840  160.2137 C.2     1  UNL1        0.0527
     10 C         139.6659  138.3628  159.7413 C.2     1  UNL1        0.1911
     11 N         139.9963  138.0668  158.3084 N.2     1  UNL1       -0.0723
     12 C         140.2438  139.1921  157.3479 C.cat   1  UNL1        0.3804
     13 N         140.1609  140.6133  157.8204 N.pl3   1  UNL1       -0.1554
     14 C         140.3607  141.9005  157.0765 C.2     1  UNL1        0.2413
     15 N         140.1565  143.0303  158.0417 N.2     1  UNL1       -0.2277
     16 C         139.8367  142.4060  159.3520 C.3     1  UNL1        0.2204
     17 C         139.5981  143.3974  160.4521 C.2     1  UNL1        0.2521
     18 O         139.7354  144.8164  159.9857 O.2     1  UNL1       -0.2726
     19 C         139.8305  140.9093  159.2532 C.3     1  UNL1        0.1964
     20 C         138.2382  138.2528  165.8162 C.3     1  UNL1        0.4348
     21 F         137.9045  137.7740  167.1979 F       1  UNL1       -0.1644
     22 F         137.8115  139.6403  166.1939 F       1  UNL1       -0.1644
     23 F         138.6650  136.8653  165.4384 F       1  UNL1       -0.1644
     24 N         140.5742  138.8962  155.9150 N.pl3   1  UNL1       -0.2203
     25 H         139.8821  138.9886  155.2210 H       1  UNL1        0.2456
     26 C         141.9592  138.4593  155.5394 C.3     1  UNL1        0.1927
     27 C         142.3118  137.0013  155.5401 C.ar    1  UNL1        0.0412
     28 C         142.8674  136.3646  156.7794 C.ar    1  UNL1        0.1391
     29 F         143.0703  137.1859  158.0181 F       1  UNL1       -0.2044
     30 C         143.2200  134.9067  156.7800 C.ar    1  UNL1        0.0325
     31 C         143.0170  134.0854  155.5414 C.ar    1  UNL1        0.0389
     32 C         142.4615  134.7222  154.3020 C.ar    1  UNL1        0.1346
     33 C         142.1088  136.1801  154.3014 C.ar    1  UNL1        0.0168
     34 C         141.5834  136.5293  152.9405 C.3     1  UNL1        0.0766
     35 C         141.6112  135.2872  152.1001 C.3     1  UNL1        0.2101
     36 O         142.1539  134.1703  152.9416 O.3     1  UNL1       -0.4754
     37 C         139.1285  144.6493  162.5579 C.3     1  UNL1        0.1603
     38 C         138.4945  144.8516  165.4831 C.3     1  UNL1        0.0740
     39 C         138.8115  144.7505  164.0205 C.3     1  UNL1        0.2820
     40 F         140.2656  144.9629  164.3210 F       1  UNL1       -0.2025
     41 F         137.3573  144.5380  163.7200 F       1  UNL1       -0.2025
@<TRIPOS>BOND
     1    38    39    1
     2    39    40    1
     3    39    41    1
     4    39    37    1
     5    37     1    1
     6     1     2    1
     7     2     3    1
     8     3     4   ar
     9     4     5   ar
    10     5    20    1
    11    20    21    1
    12    20    22    1
    13    20    23    1
    14     5     6   ar
    15     6     7   ar
    16     7     8   ar
    17     8     9    1
    18     9    10    2
    19    10    11    1
    20    11    12    2
    21    12    24    1
    22    24    26    1
    23    26    27    1
    24    27    28   ar
    25    28    29    1
    26    28    30   ar
    27    30    31   ar
    28    31    32   ar
    29    32    33   ar
    30    33    34    1
    31    34    35    1
    32    35    36    1
    33    12    13    1
    34    13    14    1
    35    14    15    2
    36    15    16    1
    37    16    17    1
    38    17    18    2
    39    16    19    1
    40    17     1   am
    41     8     3   ar
    42    19     9    1
    43    33    27   ar
    44    19    13    1
    45    36    32    1
    46    24    25    1
@<TRIPOS>MOLECULE
*****
 41 46 0 0 0
SMALL
GASTEIGER

@<TRIPOS>ATOM
      1 N         139.1850  143.0044  162.8510 N.am    1  UNL1       -0.2684
      2 C         138.8143  141.8562  163.7422 C.3     1  UNL1        0.1205
      3 C         139.1659  140.3990  163.7963 C.ar    1  UNL1        0.0005
      4 C         138.4108  139.8610  164.9754 C.ar    1  UNL1        0.0205
      5 C         138.5238  138.4103  165.3398 C.ar    1  UNL1        0.1524
      6 N         139.3918  137.4977  164.5251 N.ar    1  UNL1       -0.2399
      7 C         140.1468  138.0357  163.3460 C.ar    1  UNL1        0.0983
      8 C         140.0339  139.4864  162.9816 C.ar    1  UNL1        0.0188
      9 C         140.9099  139.6530  161.7754 C.2     1  UNL1        0.0527
     10 C         141.4762  138.2886  161.5154 C.2     1  UNL1        0.1911
     11 N         142.4133  138.0723  160.3643 N.2     1  UNL1       -0.0723
     12 C         142.7840  139.2205  159.4731 C.cat   1  UNL1        0.3804
     13 N         142.2177  140.5850  159.7331 N.pl3   1  UNL1       -0.1554
     14 C         142.4240  141.8803  159.0053 C.2     1  UNL1        0.2413
     15 N         141.6119  142.9349  159.6966 N.2     1  UNL1       -0.2277
     16 C         140.9290  142.2584  160.8301 C.3     1  UNL1        0.2204
     17 C         140.0610  143.1710  161.6448 C.2     1  UNL1        0.2521
     18 O         140.0713  144.5810  161.1332 O.2     1  UNL1       -0.2726
     19 C         141.2806  140.8012  160.8842 C.3     1  UNL1        0.1964
     20 C         137.7686  137.8722  166.5190 C.3     1  UNL1        0.4348
     21 F         137.0136  137.3341  167.6981 F       1  UNL1       -0.1644
     22 F         138.0279  136.4725  166.0462 F       1  UNL1       -0.1644
     23 F         137.5094  139.2719  166.9918 F       1  UNL1       -0.1644
     24 N         143.7212  139.0043  158.3220 N.pl3   1  UNL1       -0.2203
     25 H         144.6642  138.7775  158.4909 H       1  UNL1        0.2456
     26 C         143.2215  139.1335  156.9136 C.3     1  UNL1        0.1927
     27 C         142.0909  138.2706  156.4368 C.ar    1  UNL1        0.0412
     28 C         140.6847  138.7917  156.4685 C.ar    1  UNL1        0.1391
     29 F         140.4091  140.1758  156.9770 F       1  UNL1       -0.2044
     30 C         139.5542  137.9289  155.9916 C.ar    1  UNL1        0.0325
     31 C         139.8298  136.5450  155.4831 C.ar    1  UNL1        0.0389
     32 C         141.2360  136.0238  155.4514 C.ar    1  UNL1        0.1346
     33 C         142.3666  136.8866  155.9282 C.ar    1  UNL1        0.0168
     34 C         143.6394  136.1071  155.7790 C.3     1  UNL1        0.0766
     35 C         143.2955  134.7626  155.2099 C.3     1  UNL1        0.2101
     36 O         141.8102  134.7111  155.0075 O.3     1  UNL1       -0.4754
     37 C         138.5249  144.2869  163.2627 C.3     1  UNL1        0.1603
     38 C         138.6049  145.1618  166.1311 C.3     1  UNL1        0.0740
     39 C         138.5649  144.7244  164.6968 C.3     1  UNL1        0.2820
     40 F         137.1192  144.3550  164.8498 F       1  UNL1       -0.2025
     41 F         140.0107  145.0938  164.5439 F       1  UNL1       -0.2025
@<TRIPOS>BOND
     1    38    39    1
     2    39    40    1
     3    39    41    1
     4    39    37    1
     5    37     1    1
     6     1     2    1
     7     2     3    1
     8     3     4   ar
     9     4     5   ar
    10     5    20    1
    11    20    21    1
    12    20    22    1
    13    20    23    1
    14     5     6   ar
    15     6     7   ar
    16     7     8   ar
    17     8     9    1
    18     9    10    2
    19    10    11    1
    20    11    12    2
    21    12    24    1
    22    24    26    1
    23    26    27    1
    24    27    28   ar
    25    28    29    1
    26    28    30   ar
    27    30    31   ar
    28    31    32   ar
    29    32    33   ar
    30    33    34    1
    31    34    35    1
    32    35    36    1
    33    12    13    1
    34    13    14    1
    35    14    15    2
    36    15    16    1
    37    16    17    1
    38    17    18    2
    39    16    19    1
    40    17     1   am
    41     8     3   ar
    42    19     9    1
    43    33    27   ar
    44    19    13    1
    45    36    32    1
    46    24    25    1
@<TRIPOS>MOLECULE
*****
 41 46 0 0 0
SMALL
GASTEIGER

@<TRIPOS>ATOM
      1 N         139.1385  142.2165  162.3778 N.am    1  UNL1       -0.2684
      2 C         139.9002  141.6181  163.5231 C.3     1  UNL1        0.1205
      3 C         140.8979  140.5075  163.6685 C.ar    1  UNL1        0.0005
      4 C         141.2328  140.4753  165.1303 C.ar    1  UNL1        0.0205
      5 C         142.2170  139.4710  165.6523 C.ar    1  UNL1        0.1524
      6 N         142.8664  138.4988  164.7125 N.ar    1  UNL1       -0.2399
      7 C         142.5315  138.5309  163.2508 C.ar    1  UNL1        0.0983
      8 C         141.5472  139.5352  162.7288 C.ar    1  UNL1        0.0188
      9 C         141.4678  139.2709  161.2543 C.2     1  UNL1        0.0527
     10 C         142.4110  138.1298  161.0132 C.2     1  UNL1        0.1911
     11 N         142.5925  137.5870  159.6266 N.2     1  UNL1       -0.0723
     12 C         141.8309  138.1855  158.4813 C.cat   1  UNL1        0.3804
     13 N         140.8877  139.3266  158.7225 N.pl3   1  UNL1       -0.1554
     14 C         140.0205  140.0922  157.7676 C.2     1  UNL1        0.2413
     15 N         139.2773  141.1342  158.5497 N.2     1  UNL1       -0.2277
     16 C         139.7085  140.9800  159.9636 C.3     1  UNL1        0.2204
     17 C         139.0591  141.9522  160.9034 C.2     1  UNL1        0.2521
     18 O         138.1070  142.8771  160.2048 O.2     1  UNL1       -0.2726
     19 C         140.7062  139.8693  160.1090 C.3     1  UNL1        0.1964
     20 C         142.5520  139.4388  167.1141 C.3     1  UNL1        0.4348
     21 F         142.8869  139.4066  168.5758 F       1  UNL1       -0.1644
     22 F         143.5209  138.3207  166.8674 F       1  UNL1       -0.1644
     23 F         141.5831  140.5570  167.3607 F       1  UNL1       -0.1644
     24 N         142.0124  137.6427  157.0947 N.pl3   1  UNL1       -0.2203
     25 H         141.3676  137.8733  156.3875 H       1  UNL1        0.2456
     26 C         143.1765  136.7486  156.7858 C.3     1  UNL1        0.1927
     27 C         142.9393  135.3495  156.2993 C.ar    1  UNL1        0.0412
     28 C         143.1606  134.1873  157.2214 C.ar    1  UNL1        0.1391
     29 F         143.6192  134.4240  158.6299 F       1  UNL1       -0.2044
     30 C         142.9234  132.7883  156.7350 C.ar    1  UNL1        0.0325
     31 C         142.4649  132.5516  155.3266 C.ar    1  UNL1        0.0389
     32 C         142.2435  133.7139  154.4046 C.ar    1  UNL1        0.1346
     33 C         142.4807  135.1128  154.8909 C.ar    1  UNL1        0.0168
     34 C         142.1807  136.0533  153.7616 C.3     1  UNL1        0.0766
     35 C         141.7581  135.2357  152.5773 C.3     1  UNL1        0.2101
     36 O         141.7969  133.7898  152.9746 O.3     1  UNL1       -0.4754
     37 C         138.2472  143.3437  162.8077 C.3     1  UNL1        0.1603
     38 C         138.7871  144.7846  165.3830 C.3     1  UNL1        0.0740
     39 C         138.5172  144.0642  164.0953 C.3     1  UNL1        0.2820
     40 F         137.4540  143.2516  164.7729 F       1  UNL1       -0.2025
     41 F         139.5804  144.8768  163.4178 F       1  UNL1       -0.2025
@<TRIPOS>BOND
     1    38    39    1
     2    39    40    1
     3    39    41    1
     4    39    37    1
     5    37     1    1
     6     1     2    1
     7     2     3    1
     8     3     4   ar
     9     4     5   ar
    10     5    20    1
    11    20    21    1
    12    20    22    1
    13    20    23    1
    14     5     6   ar
    15     6     7   ar
    16     7     8   ar
    17     8     9    1
    18     9    10    2
    19    10    11    1
    20    11    12    2
    21    12    24    1
    22    24    26    1
    23    26    27    1
    24    27    28   ar
    25    28    29    1
    26    28    30   ar
    27    30    31   ar
    28    31    32   ar
    29    32    33   ar
    30    33    34    1
    31    34    35    1
    32    35    36    1
    33    12    13    1
    34    13    14    1
    35    14    15    2
    36    15    16    1
    37    16    17    1
    38    17    18    2
    39    16    19    1
    40    17     1   am
    41     8     3   ar
    42    19     9    1
    43    33    27   ar
    44    19    13    1
    45    36    32    1
    46    24    25    1
@<TRIPOS>MOLECULE
*****
 41 46 0 0 0
SMALL
GASTEIGER

@<TRIPOS>ATOM
      1 N         139.9901  143.4020  162.1760 N.am    1  UNL1       -0.2684
      2 C         139.5852  142.2273  163.0163 C.3     1  UNL1        0.1205
      3 C         139.8632  140.7536  162.9835 C.ar    1  UNL1        0.0005
      4 C         139.1134  140.1910  164.1545 C.ar    1  UNL1        0.0205
      5 C         139.1617  138.7190  164.4389 C.ar    1  UNL1        0.1524
      6 N         139.9599  137.8097  163.5523 N.ar    1  UNL1       -0.2399
      7 C         140.7096  138.3723  162.3813 C.ar    1  UNL1        0.0983
      8 C         140.6613  139.8442  162.0969 C.ar    1  UNL1        0.0188
      9 C         141.5120  140.0319  160.8757 C.2     1  UNL1        0.0527
     10 C         142.0007  138.6570  160.5281 C.2     1  UNL1        0.1911
     11 N         142.8943  138.4569  159.3401 N.2     1  UNL1       -0.0723
     12 C         143.2993  139.6316  158.4998 C.cat   1  UNL1        0.3804
     13 N         142.8106  141.0064  158.8475 N.pl3   1  UNL1       -0.1554
     14 C         143.0634  142.3272  158.1829 C.2     1  UNL1        0.2413
     15 N         142.3250  143.3821  158.9522 N.2     1  UNL1       -0.2277
     16 C         141.6390  142.6803  160.0682 C.3     1  UNL1        0.2204
     17 C         140.8409  143.5896  160.9548 C.2     1  UNL1        0.2521
     18 O         140.9096  145.0229  160.5178 O.2     1  UNL1       -0.2726
     19 C         141.9170  141.2066  160.0354 C.3     1  UNL1        0.1964
     20 C         138.4119  138.1563  165.6099 C.3     1  UNL1        0.4348
     21 F         137.6622  137.5936  166.7809 F       1  UNL1       -0.1644
     22 F         139.0845  136.8315  165.4039 F       1  UNL1       -0.1644
     23 F         137.7394  139.4812  165.8160 F       1  UNL1       -0.1644
     24 N         144.1930  139.4313  157.3118 N.pl3   1  UNL1       -0.2203
     25 H         145.1709  139.4684  157.4197 H       1  UNL1        0.2456
     26 C         143.5968  139.1747  155.9596 C.3     1  UNL1        0.1927
     27 C         142.6883  137.9994  155.7512 C.ar    1  UNL1        0.0412
     28 C         143.2659  136.6525  155.4314 C.ar    1  UNL1        0.1391
     29 F         144.7519  136.4809  155.3201 F       1  UNL1       -0.2044
     30 C         142.3575  135.4772  155.2231 C.ar    1  UNL1        0.0325
     31 C         140.8715  135.6489  155.3345 C.ar    1  UNL1        0.0389
     32 C         140.2940  136.9958  155.6542 C.ar    1  UNL1        0.1346
     33 C         141.2024  138.1711  155.8626 C.ar    1  UNL1        0.0168
     34 C         140.3500  139.3680  156.1637 C.3     1  UNL1        0.0766
     35 C         138.9149  138.9326  156.1414 C.3     1  UNL1        0.2101
     36 O         138.8802  137.4664  155.8265 O.3     1  UNL1       -0.4754
     37 C         139.4077  144.6917  162.6735 C.3     1  UNL1        0.1603
     38 C         138.5550  144.9459  165.5385 C.3     1  UNL1        0.0740
     39 C         138.9814  144.8188  164.1060 C.3     1  UNL1        0.2820
     40 F         137.5597  144.5570  163.7061 F       1  UNL1       -0.2025
     41 F         140.4032  145.0807  164.5060 F       1  UNL1       -0.2025
@<TRIPOS>BOND
     1    38    39    1
     2    39    40    1
     3    39    41    1
     4    39    37    1
     5    37     1    1
     6     1     2    1
     7     2     3    1
     8     3     4   ar
     9     4     5   ar
    10     5    20    1
    11    20    21    1
    12    20    22    1
    13    20    23    1
    14     5     6   ar
    15     6     7   ar
    16     7     8   ar
    17     8     9    1
    18     9    10    2
    19    10    11    1
    20    11    12    2
    21    12    24    1
    22    24    26    1
    23    26    27    1
    24    27    28   ar
    25    28    29    1
    26    28    30   ar
    27    30    31   ar
    28    31    32   ar
    29    32    33   ar
    30    33    34    1
    31    34    35    1
    32    35    36    1
    33    12    13    1
    34    13    14    1
    35    14    15    2
    36    15    16    1
    37    16    17    1
    38    17    18    2
    39    16    19    1
    40    17     1   am
    41     8     3   ar
    42    19     9    1
    43    33    27   ar
    44    19    13    1
    45    36    32    1
    46    24    25    1
@<TRIPOS>MOLECULE
*****
 41 46 0 0 0
SMALL
GASTEIGER

@<TRIPOS>ATOM
      1 N         143.8001  142.4182  158.4395 N.am    1  UNL1       -0.2684
      2 C         143.1236  143.2818  157.4164 C.3     1  UNL1        0.1205
      3 C         142.0829  144.3612  157.4605 C.ar    1  UNL1        0.0005
      4 C         141.8947  144.7775  156.0318 C.ar    1  UNL1        0.0205
      5 C         140.9112  145.8568  155.6885 C.ar    1  UNL1        0.1524
      6 N         140.1161  146.5198  156.7739 N.ar    1  UNL1       -0.2399
      7 C         140.3043  146.1035  158.2026 C.ar    1  UNL1        0.0983
      8 C         141.2878  145.0242  158.5459 C.ar    1  UNL1        0.0188
      9 C         141.2038  144.8825  160.0369 C.2     1  UNL1        0.0527
     10 C         140.1770  145.8884  160.4653 C.2     1  UNL1        0.1911
     11 N         139.8266  146.0308  161.9168 N.2     1  UNL1       -0.0723
     12 C         140.5031  145.1673  162.9399 C.cat   1  UNL1        0.3804
     13 N         141.5300  144.1614  162.5114 N.pl3   1  UNL1       -0.1554
     14 C         142.3401  143.1915  163.3196 C.2     1  UNL1        0.2413
     15 N         143.2167  142.4215  162.3771 N.2     1  UNL1       -0.2277
     16 C         142.9210  142.9395  161.0159 C.3     1  UNL1        0.2204
     17 C         143.7162  142.2765  159.9305 C.2     1  UNL1        0.2521
     18 O         144.6455  141.2250  160.4603 O.2     1  UNL1       -0.2726
     19 C         141.8803  144.0190  161.0599 C.3     1  UNL1        0.1964
     20 C         140.7229  146.2731  154.2597 C.3     1  UNL1        0.4348
     21 F         140.5347  146.6894  152.8310 F       1  UNL1       -0.1644
     22 F         142.0882  145.7485  153.9270 F       1  UNL1       -0.1644
     23 F         139.3576  146.7977  154.5925 F       1  UNL1       -0.1644
     24 N         140.1527  145.3098  164.3914 N.pl3   1  UNL1       -0.2203
     25 H         140.7230  145.8501  164.9848 H       1  UNL1        0.2456
     26 C         138.9334  144.6290  164.9389 C.3     1  UNL1        0.1927
     27 C         138.6705  143.1879  164.6164 C.ar    1  UNL1        0.0412
     28 C         137.8001  142.8273  163.4492 C.ar    1  UNL1        0.1391
     29 F         137.1925  143.9078  162.6046 F       1  UNL1       -0.2044
     30 C         137.5372  141.3862  163.1266 C.ar    1  UNL1        0.0325
     31 C         138.1447  140.3057  163.9712 C.ar    1  UNL1        0.0389
     32 C         139.0151  140.6663  165.1384 C.ar    1  UNL1        0.1346
     33 C         139.2780  142.1074  165.4610 C.ar    1  UNL1        0.0168
     34 C         140.1708  142.1574  166.6653 C.3     1  UNL1        0.0766
     35 C         140.4597  140.7472  167.0871 C.3     1  UNL1        0.2101
     36 O         139.7454  139.8257  166.1434 O.3     1  UNL1       -0.4754
     37 C         144.7936  141.4753  157.8282 C.3     1  UNL1        0.1603
     38 C         147.0336  142.5423  156.1419 C.3     1  UNL1        0.0740
     39 C         145.9136  142.0088  156.9851 C.3     1  UNL1        0.2820
     40 F         145.4722  141.1369  155.8471 F       1  UNL1       -0.2025
     41 F         146.3550  142.8807  158.1231 F       1  UNL1       -0.2025
@<TRIPOS>BOND
     1    38    39    1
     2    39    40    1
     3    39    41    1
     4    39    37    1
     5    37     1    1
     6     1     2    1
     7     2     3    1
     8     3     4   ar
     9     4     5   ar
    10     5    20    1
    11    20    21    1
    12    20    22    1
    13    20    23    1
    14     5     6   ar
    15     6     7   ar
    16     7     8   ar
    17     8     9    1
    18     9    10    2
    19    10    11    1
    20    11    12    2
    21    12    24    1
    22    24    26    1
    23    26    27    1
    24    27    28   ar
    25    28    29    1
    26    28    30   ar
    27    30    31   ar
    28    31    32   ar
    29    32    33   ar
    30    33    34    1
    31    34    35    1
    32    35    36    1
    33    12    13    1
    34    13    14    1
    35    14    15    2
    36    15    16    1
    37    16    17    1
    38    17    18    2
    39    16    19    1
    40    17     1   am
    41     8     3   ar
    42    19     9    1
    43    33    27   ar
    44    19    13    1
    45    36    32    1
    46    24    25    1
@<TRIPOS>MOLECULE
*****
 41 46 0 0 0
SMALL
GASTEIGER

@<TRIPOS>ATOM
      1 N         139.1113  142.2183  162.4321 N.am    1  UNL1       -0.2684
      2 C         139.8375  141.6057  163.5928 C.3     1  UNL1        0.1205
      3 C         140.8338  140.4961  163.7545 C.ar    1  UNL1        0.0005
      4 C         141.1213  140.4438  165.2258 C.ar    1  UNL1        0.0205
      5 C         142.0916  139.4350  165.7650 C.ar    1  UNL1        0.1524
      6 N         142.7745  138.4785  164.8329 N.ar    1  UNL1       -0.2399
      7 C         142.4870  138.5307  163.3617 C.ar    1  UNL1        0.0983
      8 C         141.5167  139.5395  162.8225 C.ar    1  UNL1        0.0188
      9 C         141.4860  139.2963  161.3426 C.2     1  UNL1        0.0527
     10 C         142.4404  138.1616  161.1158 C.2     1  UNL1        0.1911
     11 N         142.6687  137.6395  159.7283 N.2     1  UNL1       -0.0723
     12 C         141.9425  138.2521  158.5676 C.cat   1  UNL1        0.3804
     13 N         140.9880  139.3868  158.7943 N.pl3   1  UNL1       -0.1554
     14 C         140.1495  140.1635  157.8229 C.2     1  UNL1        0.2413
     15 N         139.3778  141.1918  158.5954 N.2     1  UNL1       -0.2277
     16 C         139.7634  141.0185  160.0201 C.3     1  UNL1        0.2204
     17 C         139.0806  141.9751  160.9522 C.2     1  UNL1        0.2521
     18 O         138.1484  142.9071  160.2364 O.2     1  UNL1       -0.2726
     19 C         140.7598  139.9089  160.1819 C.3     1  UNL1        0.1964
     20 C         142.3791  139.3828  167.2363 C.3     1  UNL1        0.4348
     21 F         142.6667  139.3305  168.7075 F       1  UNL1       -0.1644
     22 F         143.5338  138.4608  166.9778 F       1  UNL1       -0.1644
     23 F         141.2245  140.3047  167.4947 F       1  UNL1       -0.1644
     24 N         142.1707  137.7299  157.1800 N.pl3   1  UNL1       -0.2203
     25 H         142.9812  137.9878  156.6841 H       1  UNL1        0.2456
     26 C         141.1642  136.8149  156.5479 C.3     1  UNL1        0.1927
     27 C         141.6230  135.6732  155.6900 C.ar    1  UNL1        0.0412
     28 C         141.0813  135.5144  154.3003 C.ar    1  UNL1        0.1391
     29 F         140.0807  136.4973  153.7685 F       1  UNL1       -0.2044
     30 C         141.5401  134.3727  153.4424 C.ar    1  UNL1        0.0325
     31 C         142.5407  133.3899  153.9742 C.ar    1  UNL1        0.0389
     32 C         143.0824  133.5487  155.3639 C.ar    1  UNL1        0.1346
     33 C         142.6236  134.6904  156.2218 C.ar    1  UNL1        0.0168
     34 C         143.3287  134.5907  157.5419 C.3     1  UNL1        0.0766
     35 C         144.2233  133.3874  157.5000 C.3     1  UNL1        0.2101
     36 O         144.0711  132.7435  156.1539 O.3     1  UNL1       -0.4754
     37 C         138.2025  143.3365  162.8490 C.3     1  UNL1        0.1603
     38 C         138.7085  144.8024  165.4170 C.3     1  UNL1        0.0740
     39 C         138.4555  144.0694  164.1329 C.3     1  UNL1        0.2820
     40 F         137.4212  143.2264  164.8180 F       1  UNL1       -0.2025
     41 F         139.4899  144.9126  163.4479 F       1  UNL1       -0.2025
@<TRIPOS>BOND
     1    38    39    1
     2    39    40    1
     3    39    41    1
     4    39    37    1
     5    37     1    1
     6     1     2    1
     7     2     3    1
     8     3     4   ar
     9     4     5   ar
    10     5    20    1
    11    20    21    1
    12    20    22    1
    13    20    23    1
    14     5     6   ar
    15     6     7   ar
    16     7     8   ar
    17     8     9    1
    18     9    10    2
    19    10    11    1
    20    11    12    2
    21    12    24    1
    22    24    26    1
    23    26    27    1
    24    27    28   ar
    25    28    29    1
    26    28    30   ar
    27    30    31   ar
    28    31    32   ar
    29    32    33   ar
    30    33    34    1
    31    34    35    1
    32    35    36    1
    33    12    13    1
    34    13    14    1
    35    14    15    2
    36    15    16    1
    37    16    17    1
    38    17    18    2
    39    16    19    1
    40    17     1   am
    41     8     3   ar
    42    19     9    1
    43    33    27   ar
    44    19    13    1
    45    36    32    1
    46    24    25    1
