@<TRIPOS>MOLECULE
*****
 32 35 0 0 0
SMALL
GASTEIGER

@<TRIPOS>ATOM
      1 C         141.0475  139.8730  162.3144 C.3     1  UNL1        0.0667
      2 C         139.7827  139.0771  162.1851 C.3     1  UNL1        0.0337
      3 C         139.3472  138.5742  160.8407 C.3     1  UNL1        0.0735
      4 N         140.1765  138.8673  159.6256 N.3     1  UNL1       -0.2714
      5 C         139.7409  138.3643  158.2812 C.3     1  UNL1        0.0896
      6 C         141.4413  139.6632  159.7549 C.3     1  UNL1        0.0735
      7 C         141.8768  140.1661  161.0992 C.3     1  UNL1        0.0337
      8 N         140.6040  139.8542  163.7472 N.3     1  UNL1       -0.2711
      9 C         139.1677  140.1157  164.0912 C.3     1  UNL1        0.0897
     10 C         138.7242  140.0969  165.5240 C.3     1  UNL1        0.0899
     11 N         139.7172  139.8165  166.6128 N.3     1  UNL1       -0.2665
     12 C         141.1535  139.5549  166.2688 C.3     1  UNL1        0.0899
     13 C         141.5970  139.5738  164.8360 C.3     1  UNL1        0.0897
     14 C         139.2737  139.7976  168.0457 C.3     1  UNL1        0.0992
     15 C         140.0125  140.6066  169.0702 C.ar    1  UNL1       -0.0061
     16 C         140.6474  139.9270  170.2471 C.ar    1  UNL1       -0.0029
     17 C         141.3863  140.7361  171.2716 C.ar    1  UNL1       -0.0003
     18 C         141.4902  142.2246  171.1192 C.ar    1  UNL1       -0.0000
     19 C         140.8553  142.9042  169.9423 C.ar    1  UNL1       -0.0003
     20 C         140.1165  142.0953  168.9178 C.ar    1  UNL1       -0.0029
     21 C         142.1583  140.6624  162.9413 C.3     1  UNL1        0.1128
     22 C         143.3214  142.9303  162.4372 C.2     1  UNL1        0.2294
     23 O         144.5546  142.1995  161.9952 O.2     1  UNL1       -0.2745
     24 N         142.1233  142.1617  162.9102 N.am    1  UNL1       -0.2573
     25 C         140.8900  142.8924  163.3521 C.ar    1  UNL1        0.0539
     26 C         140.7065  143.2477  164.7978 C.ar    1  UNL1        0.0149
     27 C         139.4732  143.9784  165.2397 C.ar    1  UNL1        0.0013
     28 C         138.4237  144.3538  164.2359 C.ar    1  UNL1        0.0001
     29 C         138.6074  143.9984  162.7903 C.ar    1  UNL1        0.0013
     30 C         139.8405  143.2677  162.3483 C.ar    1  UNL1        0.0149
     31 C         143.6950  145.2146  163.6171 C.3     1  UNL1        0.0101
     32 C         143.2864  144.4295  162.4060 C.3     1  UNL1        0.0856
@<TRIPOS>BOND
     1    31    32    1
     2    32    22    1
     3    22    23    2
     4    22    24   am
     5    24    21    1
     6    21     1    1
     7     1     8    1
     8     8     9    1
     9     9    10    1
    10    10    11    1
    11    11    14    1
    12    14    15    1
    13    15    16   ar
    14    16    17   ar
    15    17    18   ar
    16    18    19   ar
    17    19    20   ar
    18    11    12    1
    19    12    13    1
    20     1     2    1
    21     2     3    1
    22     3     4    1
    23     4     5    1
    24     4     6    1
    25     6     7    1
    26    24    25    1
    27    25    26   ar
    28    26    27   ar
    29    27    28   ar
    30    28    29   ar
    31    29    30   ar
    32     7     1    1
    33    30    25   ar
    34    13     8    1
    35    20    15   ar
@<TRIPOS>MOLECULE
*****
 32 35 0 0 0
SMALL
GASTEIGER

@<TRIPOS>ATOM
      1 C         141.2070  140.8264  166.7455 C.3     1  UNL1        0.0667
      2 C         140.0217  140.2444  167.4569 C.3     1  UNL1        0.0337
      3 C         139.8791  140.4152  168.9403 C.3     1  UNL1        0.0735
      4 N         140.9218  141.1681  169.7123 N.3     1  UNL1       -0.2714
      5 C         140.7792  141.3389  171.1957 C.3     1  UNL1        0.0896
      6 C         142.1071  141.7502  169.0008 C.3     1  UNL1        0.0735
      7 C         142.2497  141.5794  167.5174 C.3     1  UNL1        0.0337
      8 N         140.4894  140.2001  165.5867 N.3     1  UNL1       -0.2711
      9 C         139.0140  140.4099  165.4161 C.3     1  UNL1        0.0897
     10 C         138.2964  139.7836  164.2573 C.3     1  UNL1        0.0899
     11 N         139.0543  138.9475  163.2691 N.3     1  UNL1       -0.2665
     12 C         140.5297  138.7378  163.4396 C.3     1  UNL1        0.0899
     13 C         141.2472  139.3641  164.5984 C.3     1  UNL1        0.0897
     14 C         138.3367  138.3212  162.1102 C.3     1  UNL1        0.0992
     15 C         138.5416  138.8556  160.7237 C.ar    1  UNL1       -0.0061
     16 C         139.5763  138.2410  159.8284 C.ar    1  UNL1       -0.0029
     17 C         139.7812  138.7754  158.4418 C.ar    1  UNL1       -0.0003
     18 C         138.9514  139.9243  157.9506 C.ar    1  UNL1       -0.0000
     19 C         137.9166  140.5389  158.8459 C.ar    1  UNL1       -0.0003
     20 C         137.7117  140.0045  160.2324 C.ar    1  UNL1       -0.0029
     21 C         142.1431  141.1910  165.6315 C.3     1  UNL1        0.1128
     22 C         143.3577  143.3540  164.8595 C.2     1  UNL1        0.2294
     23 O         144.6706  142.7708  165.2912 O.2     1  UNL1       -0.2745
     24 N         142.0940  142.5641  165.0297 N.am    1  UNL1       -0.2573
     25 C         140.7811  143.1472  164.5980 C.ar    1  UNL1        0.0539
     26 C         139.9596  143.9444  165.5674 C.ar    1  UNL1        0.0149
     27 C         138.6467  144.5276  165.1357 C.ar    1  UNL1        0.0013
     28 C         138.1554  144.3135  163.7347 C.ar    1  UNL1        0.0001
     29 C         138.9769  143.5164  162.7654 C.ar    1  UNL1        0.0013
     30 C         140.2898  142.9332  163.1970 C.ar    1  UNL1        0.0149
     31 C         143.7249  144.9364  162.8319 C.3     1  UNL1        0.0101
     32 C         143.3087  144.7271  164.2576 C.3     1  UNL1        0.0856
@<TRIPOS>BOND
     1    31    32    1
     2    32    22    1
     3    22    23    2
     4    22    24   am
     5    24    21    1
     6    21     1    1
     7     1     8    1
     8     8     9    1
     9     9    10    1
    10    10    11    1
    11    11    14    1
    12    14    15    1
    13    15    16   ar
    14    16    17   ar
    15    17    18   ar
    16    18    19   ar
    17    19    20   ar
    18    11    12    1
    19    12    13    1
    20     1     2    1
    21     2     3    1
    22     3     4    1
    23     4     5    1
    24     4     6    1
    25     6     7    1
    26    24    25    1
    27    25    26   ar
    28    26    27   ar
    29    27    28   ar
    30    28    29   ar
    31    29    30   ar
    32     7     1    1
    33    30    25   ar
    34    13     8    1
    35    20    15   ar
@<TRIPOS>MOLECULE
*****
 32 35 0 0 0
SMALL
GASTEIGER

@<TRIPOS>ATOM
      1 C         140.7166  140.0729  161.9306 C.3     1  UNL1        0.0667
      2 C         141.5736  138.8749  162.2138 C.3     1  UNL1        0.0337
      3 C         142.1896  138.1087  161.0809 C.3     1  UNL1        0.0735
      4 N         141.9485  138.5405  159.6647 N.3     1  UNL1       -0.2714
      5 C         142.5645  137.7743  158.5318 C.3     1  UNL1        0.0896
      6 C         141.0914  139.7385  159.3815 C.3     1  UNL1        0.0735
      7 C         140.4755  140.5047  160.5144 C.3     1  UNL1        0.0337
      8 N         140.6522  140.0550  163.4292 N.3     1  UNL1       -0.2711
      9 C         139.3287  140.1755  164.1245 C.3     1  UNL1        0.0897
     10 C         139.2644  140.1576  165.6230 C.3     1  UNL1        0.0899
     11 N         140.5237  140.0192  166.4261 N.3     1  UNL1       -0.2665
     12 C         141.8473  139.8987  165.7308 C.3     1  UNL1        0.0899
     13 C         141.9115  139.9166  164.2323 C.3     1  UNL1        0.0897
     14 C         140.4593  140.0013  167.9247 C.3     1  UNL1        0.0992
     15 C         141.2223  141.0185  168.7203 C.ar    1  UNL1       -0.0061
     16 C         142.6453  140.7508  169.1119 C.ar    1  UNL1       -0.0029
     17 C         143.4083  141.7682  169.9076 C.ar    1  UNL1       -0.0003
     18 C         142.7482  143.0531  170.3117 C.ar    1  UNL1       -0.0000
     19 C         141.3251  143.3207  169.9201 C.ar    1  UNL1       -0.0003
     20 C         140.5622  142.3035  169.1244 C.ar    1  UNL1       -0.0029
     21 C         139.8371  141.2647  162.1678 C.3     1  UNL1        0.1128
     22 C         139.5687  143.6285  161.1237 C.2     1  UNL1        0.2294
     23 O         138.2395  143.2268  160.5561 O.2     1  UNL1       -0.2745
     24 N         140.3674  142.6474  161.9295 N.am    1  UNL1       -0.2573
     25 C         141.6966  143.0491  162.4971 C.ar    1  UNL1        0.0539
     26 C         142.9355  142.9339  161.6594 C.ar    1  UNL1        0.0149
     27 C         144.2646  143.3355  162.2270 C.ar    1  UNL1        0.0013
     28 C         144.3547  143.8524  163.6323 C.ar    1  UNL1        0.0001
     29 C         143.1158  143.9676  164.4699 C.ar    1  UNL1        0.0013
     30 C         141.7867  143.5659  163.9024 C.ar    1  UNL1        0.0149
     31 C         139.7374  146.1251  161.8227 C.3     1  UNL1        0.0101
     32 C         140.0989  145.0112  160.8853 C.3     1  UNL1        0.0856
@<TRIPOS>BOND
     1    31    32    1
     2    32    22    1
     3    22    23    2
     4    22    24   am
     5    24    21    1
     6    21     1    1
     7     1     8    1
     8     8     9    1
     9     9    10    1
    10    10    11    1
    11    11    14    1
    12    14    15    1
    13    15    16   ar
    14    16    17   ar
    15    17    18   ar
    16    18    19   ar
    17    19    20   ar
    18    11    12    1
    19    12    13    1
    20     1     2    1
    21     2     3    1
    22     3     4    1
    23     4     5    1
    24     4     6    1
    25     6     7    1
    26    24    25    1
    27    25    26   ar
    28    26    27   ar
    29    27    28   ar
    30    28    29   ar
    31    29    30   ar
    32     7     1    1
    33    30    25   ar
    34    13     8    1
    35    20    15   ar
@<TRIPOS>MOLECULE
*****
 32 35 0 0 0
SMALL
GASTEIGER

@<TRIPOS>ATOM
      1 C         139.9936  140.4430  162.2758 C.3     1  UNL1        0.0667
      2 C         140.7442  139.1890  161.9380 C.3     1  UNL1        0.0337
      3 C         140.6444  138.6031  160.5608 C.3     1  UNL1        0.0735
      4 N         139.7940  139.2713  159.5213 N.3     1  UNL1       -0.2714
      5 C         139.6942  138.6854  158.1441 C.3     1  UNL1        0.0896
      6 C         139.0434  140.5252  159.8591 C.3     1  UNL1        0.0735
      7 C         139.1432  141.1111  161.2364 C.3     1  UNL1        0.0337
      8 N         140.6642  140.1784  163.5913 N.3     1  UNL1       -0.2711
      9 C         142.1397  139.9133  163.6410 C.3     1  UNL1        0.0897
     10 C         142.8103  139.6488  164.9564 C.3     1  UNL1        0.0899
     11 N         142.0053  139.6495  166.2221 N.3     1  UNL1       -0.2665
     12 C         140.5298  139.9146  166.1724 C.3     1  UNL1        0.0899
     13 C         139.8592  140.1791  164.8570 C.3     1  UNL1        0.0897
     14 C         142.6759  139.3849  167.5376 C.3     1  UNL1        0.0992
     15 C         142.4356  140.3022  168.6998 C.ar    1  UNL1       -0.0061
     16 C         141.6020  139.8419  169.8588 C.ar    1  UNL1       -0.0029
     17 C         141.3617  140.7593  171.0210 C.ar    1  UNL1       -0.0003
     18 C         141.9549  142.1369  171.0242 C.ar    1  UNL1       -0.0000
     19 C         142.7885  142.5973  169.8653 C.ar    1  UNL1       -0.0003
     20 C         143.0288  141.6800  168.7031 C.ar    1  UNL1       -0.0029
     21 C         139.4759  141.6051  163.0705 C.3     1  UNL1        0.1128
     22 C         139.1087  144.1344  162.6040 C.2     1  UNL1        0.2294
     23 O         137.6245  143.9172  162.5949 O.2     1  UNL1       -0.2745
     24 N         140.0344  142.9783  162.8418 N.am    1  UNL1       -0.2573
     25 C         141.5186  143.1955  162.8508 C.ar    1  UNL1        0.0539
     26 C         142.2188  143.5364  164.1328 C.ar    1  UNL1        0.0149
     27 C         143.7030  143.7536  164.1418 C.ar    1  UNL1        0.0013
     28 C         144.4869  143.6298  162.8690 C.ar    1  UNL1        0.0001
     29 C         143.7866  143.2889  161.5871 C.ar    1  UNL1        0.0013
     30 C         142.3024  143.0717  161.5779 C.ar    1  UNL1        0.0149
     31 C         139.9953  145.9618  160.9838 C.3     1  UNL1        0.0101
     32 C         139.6671  145.5077  162.3752 C.3     1  UNL1        0.0856
@<TRIPOS>BOND
     1    31    32    1
     2    32    22    1
     3    22    23    2
     4    22    24   am
     5    24    21    1
     6    21     1    1
     7     1     8    1
     8     8     9    1
     9     9    10    1
    10    10    11    1
    11    11    14    1
    12    14    15    1
    13    15    16   ar
    14    16    17   ar
    15    17    18   ar
    16    18    19   ar
    17    19    20   ar
    18    11    12    1
    19    12    13    1
    20     1     2    1
    21     2     3    1
    22     3     4    1
    23     4     5    1
    24     4     6    1
    25     6     7    1
    26    24    25    1
    27    25    26   ar
    28    26    27   ar
    29    27    28   ar
    30    28    29   ar
    31    29    30   ar
    32     7     1    1
    33    30    25   ar
    34    13     8    1
    35    20    15   ar
@<TRIPOS>MOLECULE
*****
 32 35 0 0 0
SMALL
GASTEIGER

@<TRIPOS>ATOM
      1 C         142.8684  140.8277  165.5570 C.3     1  UNL1        0.0667
      2 C         142.9411  139.4425  166.1278 C.3     1  UNL1        0.0337
      3 C         142.8883  139.2396  167.6131 C.3     1  UNL1        0.0735
      4 N         142.7628  140.4220  168.5275 N.3     1  UNL1       -0.2714
      5 C         142.7100  140.2191  170.0128 C.3     1  UNL1        0.0896
      6 C         142.6900  141.8072  167.9568 C.3     1  UNL1        0.0735
      7 C         142.7428  142.0101  166.4715 C.3     1  UNL1        0.0337
      8 N         142.9824  140.0303  164.2916 N.3     1  UNL1       -0.2711
      9 C         142.1694  138.7821  164.1159 C.3     1  UNL1        0.0897
     10 C         142.2834  137.9847  162.8505 C.3     1  UNL1        0.0899
     11 N         143.2106  138.4355  161.7610 N.3     1  UNL1       -0.2665
     12 C         144.0237  139.6837  161.9367 C.3     1  UNL1        0.0899
     13 C         143.9096  140.4811  163.2020 C.3     1  UNL1        0.0897
     14 C         143.3247  137.6381  160.4956 C.3     1  UNL1        0.0992
     15 C         142.3656  137.8796  159.3678 C.ar    1  UNL1       -0.0061
     16 C         141.0963  138.6404  159.6126 C.ar    1  UNL1       -0.0029
     17 C         140.1372  138.8820  158.4848 C.ar    1  UNL1       -0.0003
     18 C         140.4476  138.3627  157.1122 C.ar    1  UNL1       -0.0000
     19 C         141.7169  137.6019  156.8674 C.ar    1  UNL1       -0.0003
     20 C         142.6759  137.3603  157.9951 C.ar    1  UNL1       -0.0029
     21 C         142.8352  141.9360  164.5467 C.3     1  UNL1        0.1128
     22 C         141.4143  144.0611  164.0832 C.2     1  UNL1        0.2294
     23 O         142.6073  144.9224  164.3746 O.2     1  UNL1       -0.2745
     24 N         141.5282  142.5679  164.1693 N.am    1  UNL1       -0.2573
     25 C         140.3352  141.7067  163.8779 C.ar    1  UNL1        0.0539
     26 C         140.0841  141.2209  162.4811 C.ar    1  UNL1        0.0149
     27 C         138.8911  140.3596  162.1897 C.ar    1  UNL1        0.0013
     28 C         137.9492  139.9842  163.2951 C.ar    1  UNL1        0.0001
     29 C         138.2003  140.4700  164.6918 C.ar    1  UNL1        0.0013
     30 C         139.3933  141.3312  164.9833 C.ar    1  UNL1        0.0149
     31 C         139.0551  144.9212  164.7501 C.3     1  UNL1        0.0101
     32 C         140.1073  144.6931  163.7057 C.3     1  UNL1        0.0856
@<TRIPOS>BOND
     1    31    32    1
     2    32    22    1
     3    22    23    2
     4    22    24   am
     5    24    21    1
     6    21     1    1
     7     1     8    1
     8     8     9    1
     9     9    10    1
    10    10    11    1
    11    11    14    1
    12    14    15    1
    13    15    16   ar
    14    16    17   ar
    15    17    18   ar
    16    18    19   ar
    17    19    20   ar
    18    11    12    1
    19    12    13    1
    20     1     2    1
    21     2     3    1
    22     3     4    1
    23     4     5    1
    24     4     6    1
    25     6     7    1
    26    24    25    1
    27    25    26   ar
    28    26    27   ar
    29    27    28   ar
    30    28    29   ar
    31    29    30   ar
    32     7     1    1
    33    30    25   ar
    34    13     8    1
    35    20    15   ar
@<TRIPOS>MOLECULE
*****
 32 35 0 0 0
SMALL
GASTEIGER

@<TRIPOS>ATOM
      1 C         140.0909  139.9322  161.5585 C.3     1  UNL1        0.0667
      2 C         138.6122  140.1838  161.5574 C.3     1  UNL1        0.0337
      3 C         137.8918  140.4160  160.2624 C.3     1  UNL1        0.0735
      4 N         138.6503  140.3966  158.9684 N.3     1  UNL1       -0.2714
      5 C         137.9299  140.6289  157.6733 C.3     1  UNL1        0.0896
      6 C         140.1290  140.1451  158.9694 C.3     1  UNL1        0.0735
      7 C         140.8493  139.9129  160.2645 C.3     1  UNL1        0.0337
      8 N         139.8125  139.8549  163.0304 N.3     1  UNL1       -0.2711
      9 C         138.8182  140.7879  163.6557 C.3     1  UNL1        0.0897
     10 C         138.5399  140.7105  165.1276 C.3     1  UNL1        0.0899
     11 N         139.2557  139.7002  165.9742 N.3     1  UNL1       -0.2665
     12 C         140.2500  138.7672  165.3489 C.3     1  UNL1        0.0899
     13 C         140.5283  138.8446  163.8770 C.3     1  UNL1        0.0897
     14 C         138.9773  139.6228  167.4462 C.3     1  UNL1        0.0992
     15 C         139.7040  140.5287  168.3955 C.ar    1  UNL1       -0.0061
     16 C         140.4580  141.7149  167.8716 C.ar    1  UNL1       -0.0029
     17 C         141.1847  142.6208  168.8210 C.ar    1  UNL1       -0.0003
     18 C         141.1574  142.3404  170.2943 C.ar    1  UNL1       -0.0000
     19 C         140.4035  141.1542  170.8182 C.ar    1  UNL1       -0.0003
     20 C         139.6768  140.2484  169.8689 C.ar    1  UNL1       -0.0029
     21 C         141.4730  139.6538  162.0707 C.3     1  UNL1        0.1128
     22 C         143.8833  140.5818  161.7896 C.2     1  UNL1        0.2294
     23 O         144.3223  139.2674  161.2154 O.2     1  UNL1       -0.2745
     24 N         142.4586  140.7750  162.2172 N.am    1  UNL1       -0.2573
     25 C         142.0195  142.0894  162.7914 C.ar    1  UNL1        0.0539
     26 C         142.0492  142.3070  164.2752 C.ar    1  UNL1        0.0149
     27 C         141.6101  143.6214  164.8494 C.ar    1  UNL1        0.0013
     28 C         141.1414  144.7180  163.9397 C.ar    1  UNL1        0.0001
     29 C         141.1117  144.5004  162.4559 C.ar    1  UNL1        0.0013
     30 C         141.5507  143.1861  161.8817 C.ar    1  UNL1        0.0149
     31 C         145.6732  141.8349  163.1953 C.3     1  UNL1        0.0101
     32 C         144.8689  141.7030  161.9360 C.3     1  UNL1        0.0856
@<TRIPOS>BOND
     1    31    32    1
     2    32    22    1
     3    22    23    2
     4    22    24   am
     5    24    21    1
     6    21     1    1
     7     1     8    1
     8     8     9    1
     9     9    10    1
    10    10    11    1
    11    11    14    1
    12    14    15    1
    13    15    16   ar
    14    16    17   ar
    15    17    18   ar
    16    18    19   ar
    17    19    20   ar
    18    11    12    1
    19    12    13    1
    20     1     2    1
    21     2     3    1
    22     3     4    1
    23     4     5    1
    24     4     6    1
    25     6     7    1
    26    24    25    1
    27    25    26   ar
    28    26    27   ar
    29    27    28   ar
    30    28    29   ar
    31    29    30   ar
    32     7     1    1
    33    30    25   ar
    34    13     8    1
    35    20    15   ar
@<TRIPOS>MOLECULE
*****
 32 35 0 0 0
SMALL
GASTEIGER

@<TRIPOS>ATOM
      1 C         141.0230  140.3612  165.8742 C.3     1  UNL1        0.0667
      2 C         142.1123  139.5294  166.4836 C.3     1  UNL1        0.0337
      3 C         142.3537  139.5772  167.9633 C.3     1  UNL1        0.0735
      4 N         141.5057  140.4568  168.8335 N.3     1  UNL1       -0.2714
      5 C         141.7471  140.5046  170.3132 C.3     1  UNL1        0.0896
      6 C         140.4164  141.2886  168.2241 C.3     1  UNL1        0.0735
      7 C         140.1750  141.2408  166.7444 C.3     1  UNL1        0.0337
      8 N         141.5571  139.6894  164.6439 N.3     1  UNL1       -0.2711
      9 C         143.0375  139.6090  164.4160 C.3     1  UNL1        0.0897
     10 C         143.5715  138.9373  163.1857 C.3     1  UNL1        0.0899
     11 N         142.6251  138.3460  162.1834 N.3     1  UNL1       -0.2665
     12 C         141.1447  138.4264  162.4112 C.3     1  UNL1        0.0899
     13 C         140.6107  139.0981  163.6415 C.3     1  UNL1        0.0897
     14 C         143.1592  137.6742  160.9531 C.3     1  UNL1        0.0992
     15 C         143.1784  138.4092  159.6456 C.ar    1  UNL1       -0.0061
     16 C         142.6613  137.7449  158.4041 C.ar    1  UNL1       -0.0029
     17 C         142.6805  138.4799  157.0967 C.ar    1  UNL1       -0.0003
     18 C         143.2167  139.8792  157.0308 C.ar    1  UNL1       -0.0000
     19 C         143.7337  140.5436  158.2723 C.ar    1  UNL1       -0.0003
     20 C         143.7146  139.8086  159.5797 C.ar    1  UNL1       -0.0029
     21 C         140.1192  140.9597  164.8374 C.3     1  UNL1        0.1128
     22 C         139.2414  143.3593  164.3669 C.2     1  UNL1        0.2294
     23 O         137.8850  142.9615  164.8690 O.2     1  UNL1       -0.2745
     24 N         140.3584  142.3583  164.3511 N.am    1  UNL1       -0.2573
     25 C         141.7148  142.7560  163.8489 C.ar    1  UNL1        0.0539
     26 C         142.7073  143.3807  164.7842 C.ar    1  UNL1        0.0149
     27 C         144.0636  143.7784  164.2821 C.ar    1  UNL1        0.0013
     28 C         144.4274  143.5515  162.8447 C.ar    1  UNL1        0.0001
     29 C         143.4349  142.9268  161.9095 C.ar    1  UNL1        0.0013
     30 C         142.0786  142.5291  162.4115 C.ar    1  UNL1        0.0149
     31 C         139.1685  145.1215  162.4591 C.3     1  UNL1        0.0101
     32 C         139.4806  144.7579  163.8806 C.3     1  UNL1        0.0856
@<TRIPOS>BOND
     1    31    32    1
     2    32    22    1
     3    22    23    2
     4    22    24   am
     5    24    21    1
     6    21     1    1
     7     1     8    1
     8     8     9    1
     9     9    10    1
    10    10    11    1
    11    11    14    1
    12    14    15    1
    13    15    16   ar
    14    16    17   ar
    15    17    18   ar
    16    18    19   ar
    17    19    20   ar
    18    11    12    1
    19    12    13    1
    20     1     2    1
    21     2     3    1
    22     3     4    1
    23     4     5    1
    24     4     6    1
    25     6     7    1
    26    24    25    1
    27    25    26   ar
    28    26    27   ar
    29    27    28   ar
    30    28    29   ar
    31    29    30   ar
    32     7     1    1
    33    30    25   ar
    34    13     8    1
    35    20    15   ar
@<TRIPOS>MOLECULE
*****
 32 35 0 0 0
SMALL
GASTEIGER

@<TRIPOS>ATOM
      1 C         142.0676  142.1545  161.5170 C.3     1  UNL1        0.0667
      2 C         141.2750  143.2531  162.1612 C.3     1  UNL1        0.0337
      3 C         140.7004  144.3551  161.3213 C.3     1  UNL1        0.0735
      4 N         140.9184  144.3585  159.8372 N.3     1  UNL1       -0.2714
      5 C         140.3438  145.4606  158.9974 C.3     1  UNL1        0.0896
      6 C         141.7109  143.2600  159.1930 C.3     1  UNL1        0.0735
      7 C         142.2855  142.1580  160.0329 C.3     1  UNL1        0.0337
      8 N         142.1327  141.7167  162.9502 N.3     1  UNL1       -0.2711
      9 C         143.4566  141.3899  163.5751 C.3     1  UNL1        0.0897
     10 C         143.5217  140.9521  165.0083 C.3     1  UNL1        0.0899
     11 N         142.2630  140.8411  165.8166 N.3     1  UNL1       -0.2665
     12 C         140.9391  141.1679  165.1917 C.3     1  UNL1        0.0899
     13 C         140.8740  141.6057  163.7585 C.3     1  UNL1        0.0897
     14 C         142.3282  140.4033  167.2498 C.3     1  UNL1        0.0992
     15 C         141.4678  141.0746  168.2790 C.ar    1  UNL1       -0.0061
     16 C         141.7951  142.4641  168.7394 C.ar    1  UNL1       -0.0029
     17 C         140.9347  143.1354  169.7686 C.ar    1  UNL1       -0.0003
     18 C         139.7471  142.4171  170.3373 C.ar    1  UNL1       -0.0000
     19 C         139.4197  141.0276  169.8769 C.ar    1  UNL1       -0.0003
     20 C         140.2801  140.3563  168.8477 C.ar    1  UNL1       -0.0029
     21 C         142.8828  140.9039  161.3705 C.3     1  UNL1        0.1128
     22 C         142.9790  139.0244  159.5794 C.2     1  UNL1        0.2294
     23 O         144.2767  139.5772  159.0690 O.2     1  UNL1       -0.2745
     24 N         142.2821  139.6878  160.7302 N.am    1  UNL1       -0.2573
     25 C         140.9844  139.1349  161.2406 C.ar    1  UNL1        0.0539
     26 C         140.9808  138.1642  162.3841 C.ar    1  UNL1        0.0149
     27 C         139.6831  137.6114  162.8944 C.ar    1  UNL1        0.0013
     28 C         138.3891  138.0294  162.2613 C.ar    1  UNL1        0.0001
     29 C         138.3928  139.0001  161.1178 C.ar    1  UNL1        0.0013
     30 C         139.6904  139.5529  160.6074 C.ar    1  UNL1        0.0149
     31 C         142.6486  137.5105  157.4939 C.3     1  UNL1        0.0101
     32 C         142.3783  137.8082  158.9390 C.3     1  UNL1        0.0856
@<TRIPOS>BOND
     1    31    32    1
     2    32    22    1
     3    22    23    2
     4    22    24   am
     5    24    21    1
     6    21     1    1
     7     1     8    1
     8     8     9    1
     9     9    10    1
    10    10    11    1
    11    11    14    1
    12    14    15    1
    13    15    16   ar
    14    16    17   ar
    15    17    18   ar
    16    18    19   ar
    17    19    20   ar
    18    11    12    1
    19    12    13    1
    20     1     2    1
    21     2     3    1
    22     3     4    1
    23     4     5    1
    24     4     6    1
    25     6     7    1
    26    24    25    1
    27    25    26   ar
    28    26    27   ar
    29    27    28   ar
    30    28    29   ar
    31    29    30   ar
    32     7     1    1
    33    30    25   ar
    34    13     8    1
    35    20    15   ar
@<TRIPOS>MOLECULE
*****
 32 35 0 0 0
SMALL
GASTEIGER

@<TRIPOS>ATOM
      1 C         139.6871  139.4362  161.6769 C.3     1  UNL1        0.0667
      2 C         140.0494  138.0896  162.2296 C.3     1  UNL1        0.0337
      3 C         139.6161  137.7056  163.6134 C.3     1  UNL1        0.0735
      4 N         138.8205  138.6682  164.4444 N.3     1  UNL1       -0.2714
      5 C         138.3873  138.2841  165.8282 C.3     1  UNL1        0.0896
      6 C         138.4583  140.0147  163.8917 C.3     1  UNL1        0.0735
      7 C         138.8916  140.3988  162.5080 C.3     1  UNL1        0.0337
      8 N         140.4487  138.8734  160.5135 N.3     1  UNL1       -0.2711
      9 C         141.8526  138.3806  160.7039 C.3     1  UNL1        0.0897
     10 C         142.6141  137.8179  159.5406 C.3     1  UNL1        0.0899
     11 N         141.9718  137.7480  158.1869 N.3     1  UNL1       -0.2665
     12 C         140.5679  138.2408  157.9965 C.3     1  UNL1        0.0899
     13 C         139.8064  138.8035  159.1598 C.3     1  UNL1        0.0897
     14 C         142.7334  137.1852  157.0235 C.3     1  UNL1        0.0992
     15 C         142.5502  135.7491  156.6313 C.ar    1  UNL1       -0.0061
     16 C         143.3570  134.6789  157.3048 C.ar    1  UNL1       -0.0029
     17 C         143.1738  133.2427  156.9125 C.ar    1  UNL1       -0.0003
     18 C         142.1838  132.8768  155.8467 C.ar    1  UNL1       -0.0000
     19 C         141.3770  133.9470  155.1731 C.ar    1  UNL1       -0.0003
     20 C         141.5602  135.3832  155.5654 C.ar    1  UNL1       -0.0029
     21 C         139.5893  140.5873  160.7202 C.3     1  UNL1        0.1128
     22 C         139.5310  143.1678  161.0158 C.2     1  UNL1        0.2294
     23 O         138.0634  143.1702  160.7053 O.2     1  UNL1       -0.2745
     24 N         140.2939  141.8764  161.0232 N.am    1  UNL1       -0.2573
     25 C         141.7614  141.8740  161.3338 C.ar    1  UNL1        0.0539
     26 C         142.2265  141.8033  162.7581 C.ar    1  UNL1        0.0149
     27 C         143.6940  141.8009  163.0686 C.ar    1  UNL1        0.0013
     28 C         144.6964  141.8693  161.9548 C.ar    1  UNL1        0.0001
     29 C         144.2313  141.9399  160.5305 C.ar    1  UNL1        0.0013
     30 C         142.7638  141.9423  160.2199 C.ar    1  UNL1        0.0149
     31 C         139.8585  145.2498  162.5351 C.3     1  UNL1        0.0101
     32 C         140.2355  144.4569  161.3189 C.3     1  UNL1        0.0856
@<TRIPOS>BOND
     1    31    32    1
     2    32    22    1
     3    22    23    2
     4    22    24   am
     5    24    21    1
     6    21     1    1
     7     1     8    1
     8     8     9    1
     9     9    10    1
    10    10    11    1
    11    11    14    1
    12    14    15    1
    13    15    16   ar
    14    16    17   ar
    15    17    18   ar
    16    18    19   ar
    17    19    20   ar
    18    11    12    1
    19    12    13    1
    20     1     2    1
    21     2     3    1
    22     3     4    1
    23     4     5    1
    24     4     6    1
    25     6     7    1
    26    24    25    1
    27    25    26   ar
    28    26    27   ar
    29    27    28   ar
    30    28    29   ar
    31    29    30   ar
    32     7     1    1
    33    30    25   ar
    34    13     8    1
    35    20    15   ar
