@<TRIPOS>MOLECULE
*****
 28 31 0 0 0
SMALL
GASTEIGER

@<TRIPOS>ATOM
      1 C         143.0780  137.6849  156.7894 C.3     1  UNL1        0.1834
      2 C         143.3667  139.1525  156.9017 C.3     1  UNL1        0.1130
      3 N         142.2520  139.7860  157.6801 N.3     1  UNL1       -0.2882
      4 C         141.2742  138.7100  158.0489 C.3     1  UNL1        0.1355
      5 C         141.7847  137.4114  157.4984 C.3     1  UNL1        0.0700
      6 H         141.7893  140.4932  157.1090 H       1  UNL1        0.1237
      7 C         140.0082  138.8992  158.8308 C.2     1  UNL1        0.2401
      8 O         138.7408  139.2809  158.1252 O.2     1  UNL1       -0.2734
      9 N         140.0097  138.7067  160.3184 N.am    1  UNL1       -0.2770
     10 C         141.3282  138.3262  160.9241 C.3     1  UNL1        0.0949
     11 C         141.6551  138.0652  162.3647 C.3     1  UNL1        0.0388
     12 C         140.7443  138.1202  163.5551 C.3     1  UNL1        0.0739
     13 N         139.2816  138.4498  163.5993 N.3     1  UNL1       -0.2725
     14 C         138.3685  138.8058  162.4637 C.3     1  UNL1        0.0938
     15 C         138.6926  138.9202  161.0036 C.3     1  UNL1        0.1107
     16 C         138.6484  138.4194  164.9587 C.3     1  UNL1        0.0576
     17 C         138.1285  139.4561  165.9101 C.3     1  UNL1        0.0160
     18 C         137.7527  138.3764  166.8812 C.3     1  UNL1        0.0028
     19 C         138.2726  137.3397  165.9299 C.3     1  UNL1        0.0160
     20 O         143.9324  136.6691  156.0907 O.3     1  UNL1       -0.4777
     21 C         142.4818  132.4327  155.6453 C.ar    1  UNL1        0.0686
     22 C         142.3058  133.4080  154.5194 C.ar    1  UNL1        0.0134
     23 C         142.7893  134.8201  154.6678 C.ar    1  UNL1        0.0376
     24 C         143.4489  135.2570  155.9423 C.ar    1  UNL1        0.1385
     25 C         143.6249  134.2817  157.0682 C.ar    1  UNL1        0.0376
     26 C         143.1414  132.8696  156.9197 C.ar    1  UNL1        0.0134
     27 N         141.5148  129.6084  155.3485 N.1     1  UNL1       -0.1908
     28 C         141.9983  131.0205  155.4969 C.1     1  UNL1        0.1004
@<TRIPOS>BOND
     1    27    28    3
     2    28    21    1
     3    21    22   ar
     4    22    23   ar
     5    23    24   ar
     6    24    20    1
     7     1    20    1
     8     1     2    1
     9     2     3    1
    10     3     4    1
    11     4     7    1
    12     7     8    2
    13     7     9   am
    14     9    10    1
    15    10    11    1
    16    11    12    1
    17    12    13    1
    18    13    16    1
    19    16    17    1
    20    17    18    1
    21    18    19    1
    22    13    14    1
    23    14    15    1
    24     4     5    1
    25    24    25   ar
    26    25    26   ar
    27    26    21   ar
    28     5     1    1
    29    15     9    1
    30    19    16    1
    31     3     6    1
@<TRIPOS>MOLECULE
*****
 28 31 0 0 0
SMALL
GASTEIGER

@<TRIPOS>ATOM
      1 C         141.3217  137.7344  155.9856 C.3     1  UNL1        0.1834
      2 C         142.0582  139.0184  156.2280 C.3     1  UNL1        0.1130
      3 N         141.2925  139.8063  157.2492 N.3     1  UNL1       -0.2882
      4 C         140.0827  139.0093  157.6379 C.3     1  UNL1        0.1355
      5 C         140.1007  137.7288  156.8570 C.3     1  UNL1        0.0700
      6 H         141.0048  140.7006  156.8519 H       1  UNL1        0.1237
      7 C         139.0383  139.4206  158.6329 C.2     1  UNL1        0.2401
      8 O         137.8141  140.1562  158.1744 O.2     1  UNL1       -0.2734
      9 N         139.2180  139.0963  160.0863 N.am    1  UNL1       -0.2770
     10 C         140.4761  138.3589  160.4378 C.3     1  UNL1        0.0949
     11 C         140.9429  137.8953  161.7860 C.3     1  UNL1        0.0388
     12 C         140.2667  138.0546  163.1153 C.3     1  UNL1        0.0739
     13 N         138.9569  138.7167  163.4252 N.3     1  UNL1       -0.2725
     14 C         137.9997  139.3831  162.4820 C.3     1  UNL1        0.0938
     15 C         138.1160  139.5520  160.9960 C.3     1  UNL1        0.1107
     16 C         138.5506  138.7117  164.8690 C.3     1  UNL1        0.0576
     17 C         138.1218  139.7588  165.8539 C.3     1  UNL1        0.0160
     18 C         137.9759  138.7048  166.9111 C.3     1  UNL1        0.0028
     19 C         138.4047  137.6576  165.9263 C.3     1  UNL1        0.0160
     20 O         141.7337  136.6469  155.0382 O.3     1  UNL1       -0.4777
     21 C         142.8028  132.5714  156.6186 C.ar    1  UNL1        0.0686
     22 C         141.7643  132.7110  155.5452 C.ar    1  UNL1        0.0134
     23 C         141.4080  134.0694  155.0185 C.ar    1  UNL1        0.0376
     24 C         142.0901  135.2884  155.5650 C.ar    1  UNL1        0.1385
     25 C         143.1285  135.1489  156.6383 C.ar    1  UNL1        0.0376
     26 C         143.4849  133.7905  157.1651 C.ar    1  UNL1        0.0134
     27 N         143.5155  129.8545  157.6723 N.1     1  UNL1       -0.1908
     28 C         143.1591  131.2130  157.1454 C.1     1  UNL1        0.1004
@<TRIPOS>BOND
     1    27    28    3
     2    28    21    1
     3    21    22   ar
     4    22    23   ar
     5    23    24   ar
     6    24    20    1
     7     1    20    1
     8     1     2    1
     9     2     3    1
    10     3     4    1
    11     4     7    1
    12     7     8    2
    13     7     9   am
    14     9    10    1
    15    10    11    1
    16    11    12    1
    17    12    13    1
    18    13    16    1
    19    16    17    1
    20    17    18    1
    21    18    19    1
    22    13    14    1
    23    14    15    1
    24     4     5    1
    25    24    25   ar
    26    25    26   ar
    27    26    21   ar
    28     5     1    1
    29    15     9    1
    30    19    16    1
    31     3     6    1
@<TRIPOS>MOLECULE
*****
 28 31 0 0 0
SMALL
GASTEIGER

@<TRIPOS>ATOM
      1 C         144.1187  142.1257  164.2160 C.3     1  UNL1        0.1834
      2 C         145.5938  142.1159  163.9442 C.3     1  UNL1        0.1130
      3 N         145.7921  141.9333  162.4686 N.3     1  UNL1       -0.2882
      4 C         144.4395  141.8302  161.8284 C.3     1  UNL1        0.1355
      5 C         143.4053  141.9492  162.9083 C.3     1  UNL1        0.0700
      6 H         146.3237  141.0805  162.2937 H       1  UNL1        0.1237
      7 C         144.1686  141.6414  160.3652 C.2     1  UNL1        0.2401
      8 O         144.2878  142.8035  159.4243 O.2     1  UNL1       -0.2734
      9 N         143.7786  140.2905  159.8429 N.am    1  UNL1       -0.2770
     10 C         143.6883  139.1981  160.8669 C.3     1  UNL1        0.0949
     11 C         143.3275  137.7559  160.6665 C.3     1  UNL1        0.0388
     12 C         142.9679  137.0501  159.3928 C.3     1  UNL1        0.0739
     13 N         142.8803  137.6120  158.0048 N.3     1  UNL1       -0.2725
     14 C         143.1307  139.0185  157.5477 C.3     1  UNL1        0.0938
     15 C         143.5304  140.2106  158.3658 C.3     1  UNL1        0.1107
     16 C         142.4909  136.6386  156.9320 C.3     1  UNL1        0.0576
     17 C         141.2671  136.4184  156.0929 C.3     1  UNL1        0.0160
     18 C         141.9401  135.2621  155.4148 C.3     1  UNL1        0.0028
     19 C         143.1639  135.4822  156.2538 C.3     1  UNL1        0.0160
     20 O         143.4707  142.2842  165.5595 O.3     1  UNL1       -0.4777
     21 C         139.7898  139.9041  166.5771 C.ar    1  UNL1        0.0686
     22 C         141.0698  139.1985  166.2399 C.ar    1  UNL1        0.0134
     23 C         142.2967  139.9918  165.9007 C.ar    1  UNL1        0.0376
     24 C         142.2437  141.4909  165.8987 C.ar    1  UNL1        0.1385
     25 C         140.9638  142.1965  166.2359 C.ar    1  UNL1        0.0376
     26 C         139.7368  141.4032  166.5751 C.ar    1  UNL1        0.0134
     27 N         137.3358  138.3175  167.2555 N.1     1  UNL1       -0.1908
     28 C         138.5628  139.1108  166.9163 C.1     1  UNL1        0.1004
@<TRIPOS>BOND
     1    27    28    3
     2    28    21    1
     3    21    22   ar
     4    22    23   ar
     5    23    24   ar
     6    24    20    1
     7     1    20    1
     8     1     2    1
     9     2     3    1
    10     3     4    1
    11     4     7    1
    12     7     8    2
    13     7     9   am
    14     9    10    1
    15    10    11    1
    16    11    12    1
    17    12    13    1
    18    13    16    1
    19    16    17    1
    20    17    18    1
    21    18    19    1
    22    13    14    1
    23    14    15    1
    24     4     5    1
    25    24    25   ar
    26    25    26   ar
    27    26    21   ar
    28     5     1    1
    29    15     9    1
    30    19    16    1
    31     3     6    1
@<TRIPOS>MOLECULE
*****
 28 31 0 0 0
SMALL
GASTEIGER

@<TRIPOS>ATOM
      1 C         140.3733  145.6039  156.9500 C.3     1  UNL1        0.1834
      2 C         141.7744  146.1370  156.9998 C.3     1  UNL1        0.1130
      3 N         142.5689  145.2665  157.9276 N.3     1  UNL1       -0.2882
      4 C         141.6588  144.1953  158.4513 C.3     1  UNL1        0.1355
      5 C         140.3018  144.4038  157.8471 C.3     1  UNL1        0.0700
      6 H         142.9288  145.8240  158.7022 H       1  UNL1        0.1237
      7 C         142.0389  143.1067  159.4107 C.2     1  UNL1        0.2401
      8 O         142.5692  141.8024  158.8933 O.2     1  UNL1       -0.2734
      9 N         141.8888  143.3223  160.8875 N.am    1  UNL1       -0.2770
     10 C         141.3501  144.6607  161.2982 C.3     1  UNL1        0.0949
     11 C         141.0867  145.1784  162.6813 C.3     1  UNL1        0.0388
     12 C         141.2970  144.4857  163.9949 C.3     1  UNL1        0.0739
     13 N         141.8226  143.1041  164.2502 N.3     1  UNL1       -0.2725
     14 C         142.2677  142.0741  163.2547 C.3     1  UNL1        0.0938
     15 C         142.2971  142.1713  161.7582 C.3     1  UNL1        0.1107
     16 C         141.9153  142.6991  165.6914 C.3     1  UNL1        0.0576
     17 C         140.9383  142.5724  166.8227 C.3     1  UNL1        0.0160
     18 C         142.0464  142.1262  167.7298 C.3     1  UNL1        0.0028
     19 C         143.0235  142.2528  166.5987 C.3     1  UNL1        0.0160
     20 O         139.2421  146.1712  156.1445 O.3     1  UNL1       -0.4777
     21 C         138.8821  150.6230  155.5954 C.ar    1  UNL1        0.0686
     22 C         139.4476  149.7749  154.4950 C.ar    1  UNL1        0.0134
     23 C         139.5676  148.2910  154.6781 C.ar    1  UNL1        0.0376
     24 C         139.1221  147.6551  155.9615 C.ar    1  UNL1        0.1385
     25 C         138.5565  148.5032  157.0618 C.ar    1  UNL1        0.0376
     26 C         138.4365  149.9871  156.8788 C.ar    1  UNL1        0.0134
     27 N         138.6420  153.5909  155.2294 N.1     1  UNL1       -0.1908
     28 C         138.7620  152.1069  155.4124 C.1     1  UNL1        0.1004
@<TRIPOS>BOND
     1    27    28    3
     2    28    21    1
     3    21    22   ar
     4    22    23   ar
     5    23    24   ar
     6    24    20    1
     7     1    20    1
     8     1     2    1
     9     2     3    1
    10     3     4    1
    11     4     7    1
    12     7     8    2
    13     7     9   am
    14     9    10    1
    15    10    11    1
    16    11    12    1
    17    12    13    1
    18    13    16    1
    19    16    17    1
    20    17    18    1
    21    18    19    1
    22    13    14    1
    23    14    15    1
    24     4     5    1
    25    24    25   ar
    26    25    26   ar
    27    26    21   ar
    28     5     1    1
    29    15     9    1
    30    19    16    1
    31     3     6    1
@<TRIPOS>MOLECULE
*****
 28 31 0 0 0
SMALL
GASTEIGER

@<TRIPOS>ATOM
      1 C         142.1798  143.1440  163.7561 C.3     1  UNL1        0.1834
      2 C         143.0211  144.3816  163.8594 C.3     1  UNL1        0.1130
      3 N         142.5400  145.3567  162.8262 N.3     1  UNL1       -0.2882
      4 C         141.4013  144.7220  162.0843 C.3     1  UNL1        0.1355
      5 C         141.1787  143.3544  162.6590 C.3     1  UNL1        0.0700
      6 H         143.2964  145.5755  162.1779 H       1  UNL1        0.1237
      7 C         140.6221  145.3452  160.9644 C.2     1  UNL1        0.2401
      8 O         139.4520  146.2332  161.2682 O.2     1  UNL1       -0.2734
      9 N         141.0129  145.0805  159.5406 N.am    1  UNL1       -0.2770
     10 C         142.1965  144.1795  159.3474 C.3     1  UNL1        0.0949
     11 C         142.8280  143.7272  158.0641 C.3     1  UNL1        0.0388
     12 C         142.4319  144.0643  156.6573 C.3     1  UNL1        0.0739
     13 N         141.3064  144.9368  156.1860 N.3     1  UNL1       -0.2725
     14 C         140.2991  145.6878  157.0054 C.3     1  UNL1        0.0938
     15 C         140.1685  145.7517  158.4983 C.3     1  UNL1        0.1107
     16 C         141.1702  145.0768  154.6988 C.3     1  UNL1        0.0576
     17 C         142.0639  145.5527  153.5920 C.3     1  UNL1        0.0160
     18 C         140.9777  145.2749  152.5955 C.3     1  UNL1        0.0028
     19 C         140.0840  144.7990  153.7023 C.3     1  UNL1        0.0160
     20 O         142.3157  141.9123  164.6014 O.3     1  UNL1       -0.4777
     21 C         141.2946  142.0654  168.9813 C.ar    1  UNL1        0.0686
     22 C         140.2193  141.8019  167.9692 C.ar    1  UNL1        0.0134
     23 C         140.5597  141.7509  166.5093 C.ar    1  UNL1        0.0376
     24 C         141.9754  141.9634  166.0614 C.ar    1  UNL1        0.1385
     25 C         143.0507  142.2268  167.0733 C.ar    1  UNL1        0.0376
     26 C         142.7103  142.2779  168.5333 C.ar    1  UNL1        0.0134
     27 N         140.6140  142.1674  171.9013 N.1     1  UNL1       -0.1908
     28 C         140.9543  142.1164  170.4413 C.1     1  UNL1        0.1004
@<TRIPOS>BOND
     1    27    28    3
     2    28    21    1
     3    21    22   ar
     4    22    23   ar
     5    23    24   ar
     6    24    20    1
     7     1    20    1
     8     1     2    1
     9     2     3    1
    10     3     4    1
    11     4     7    1
    12     7     8    2
    13     7     9   am
    14     9    10    1
    15    10    11    1
    16    11    12    1
    17    12    13    1
    18    13    16    1
    19    16    17    1
    20    17    18    1
    21    18    19    1
    22    13    14    1
    23    14    15    1
    24     4     5    1
    25    24    25   ar
    26    25    26   ar
    27    26    21   ar
    28     5     1    1
    29    15     9    1
    30    19    16    1
    31     3     6    1
@<TRIPOS>MOLECULE
*****
 28 31 0 0 0
SMALL
GASTEIGER

@<TRIPOS>ATOM
      1 C         144.4133  140.6930  162.5889 C.3     1  UNL1        0.1834
      2 C         145.0743  142.0004  162.9110 C.3     1  UNL1        0.1130
      3 N         145.0829  142.8348  161.6646 N.3     1  UNL1       -0.2882
      4 C         144.4272  142.0432  160.5722 C.3     1  UNL1        0.1355
      5 C         144.0134  140.7194  161.1434 C.3     1  UNL1        0.0700
      6 H         146.0435  143.0562  161.4029 H       1  UNL1        0.1237
      7 C         144.2214  142.4959  159.1570 C.2     1  UNL1        0.2401
      8 O         145.1189  141.9862  158.0686 O.2     1  UNL1       -0.2734
      9 N         143.1182  143.4582  158.8302 N.am    1  UNL1       -0.2770
     10 C         142.2797  143.9054  159.9909 C.3     1  UNL1        0.0949
     11 C         141.1152  144.8510  159.9940 C.3     1  UNL1        0.0388
     12 C         140.5017  145.5828  158.8374 C.3     1  UNL1        0.0739
     13 N         140.9010  145.5499  157.3918 N.3     1  UNL1       -0.2725
     14 C         142.0125  144.7769  156.7460 C.3     1  UNL1        0.0938
     15 C         142.9993  143.8461  157.3862 C.3     1  UNL1        0.1107
     16 C         140.0803  146.4026  156.4703 C.3     1  UNL1        0.0576
     17 C         139.0050  147.4322  156.6542 C.3     1  UNL1        0.0160
     18 C         138.9196  147.6086  155.1671 C.3     1  UNL1        0.0028
     19 C         139.9948  146.5790  154.9831 C.3     1  UNL1        0.0160
     20 O         144.1912  139.5582  163.5445 O.3     1  UNL1       -0.4777
     21 C         140.1631  138.9933  165.4694 C.ar    1  UNL1        0.0686
     22 C         140.7965  140.3527  165.4404 C.ar    1  UNL1        0.0134
     23 C         142.1392  140.5410  164.7988 C.ar    1  UNL1        0.0376
     24 C         142.8485  139.3699  164.1861 C.ar    1  UNL1        0.1385
     25 C         142.2152  138.0106  164.2151 C.ar    1  UNL1        0.0376
     26 C         140.8725  137.8222  164.8567 C.ar    1  UNL1        0.0134
     27 N         137.4777  138.6166  166.7526 N.1     1  UNL1       -0.1908
     28 C         138.8204  138.8050  166.1110 C.1     1  UNL1        0.1004
@<TRIPOS>BOND
     1    27    28    3
     2    28    21    1
     3    21    22   ar
     4    22    23   ar
     5    23    24   ar
     6    24    20    1
     7     1    20    1
     8     1     2    1
     9     2     3    1
    10     3     4    1
    11     4     7    1
    12     7     8    2
    13     7     9   am
    14     9    10    1
    15    10    11    1
    16    11    12    1
    17    12    13    1
    18    13    16    1
    19    16    17    1
    20    17    18    1
    21    18    19    1
    22    13    14    1
    23    14    15    1
    24     4     5    1
    25    24    25   ar
    26    25    26   ar
    27    26    21   ar
    28     5     1    1
    29    15     9    1
    30    19    16    1
    31     3     6    1
@<TRIPOS>MOLECULE
*****
 28 31 0 0 0
SMALL
GASTEIGER

@<TRIPOS>ATOM
      1 C         143.5097  139.4567  164.5483 C.3     1  UNL1        0.1834
      2 C         144.9630  139.7897  164.3847 C.3     1  UNL1        0.1130
      3 N         145.2093  140.0909  162.9361 N.3     1  UNL1       -0.2882
      4 C         143.9083  139.9440  162.2043 C.3     1  UNL1        0.1355
      5 C         142.8578  139.5520  163.2007 C.3     1  UNL1        0.0700
      6 H         145.8948  139.4369  162.5583 H       1  UNL1        0.1237
      7 C         143.6951  140.1525  160.7343 C.2     1  UNL1        0.2401
      8 O         144.0581  139.0689  159.7627 O.2     1  UNL1       -0.2734
      9 N         143.1188  141.4445  160.2358 N.am    1  UNL1       -0.2770
     10 C         142.7908  142.4603  161.2897 C.3     1  UNL1        0.0949
     11 C         142.2097  143.8325  161.1174 C.3     1  UNL1        0.0388
     12 C         141.8131  144.5276  159.8488 C.3     1  UNL1        0.0739
     13 N         141.8995  144.0224  158.4391 N.3     1  UNL1       -0.2725
     14 C         142.4040  142.6972  157.9499 C.3     1  UNL1        0.0938
     15 C         142.9466  141.5500  158.7495 C.3     1  UNL1        0.1107
     16 C         141.4179  144.9673  157.3784 C.3     1  UNL1        0.0576
     17 C         140.2500  145.8981  157.2380 C.3     1  UNL1        0.0160
     18 C         140.7366  146.3036  155.8783 C.3     1  UNL1        0.0028
     19 C         141.9045  145.3728  156.0186 C.3     1  UNL1        0.0160
     20 O         142.8279  139.0922  165.8338 O.3     1  UNL1       -0.4777
     21 C         141.1769  142.3203  168.4990 C.ar    1  UNL1        0.0686
     22 C         142.0502  141.2455  169.0753 C.ar    1  UNL1        0.0134
     23 C         142.6005  140.1695  168.1870 C.ar    1  UNL1        0.0376
     24 C         142.2775  140.1683  166.7221 C.ar    1  UNL1        0.1385
     25 C         141.4043  141.2430  166.1458 C.ar    1  UNL1        0.0376
     26 C         140.8540  142.3190  167.0342 C.ar    1  UNL1        0.0134
     27 N         140.0763  144.4724  170.2758 N.1     1  UNL1       -0.1908
     28 C         140.6266  143.3964  169.3874 C.1     1  UNL1        0.1004
@<TRIPOS>BOND
     1    27    28    3
     2    28    21    1
     3    21    22   ar
     4    22    23   ar
     5    23    24   ar
     6    24    20    1
     7     1    20    1
     8     1     2    1
     9     2     3    1
    10     3     4    1
    11     4     7    1
    12     7     8    2
    13     7     9   am
    14     9    10    1
    15    10    11    1
    16    11    12    1
    17    12    13    1
    18    13    16    1
    19    16    17    1
    20    17    18    1
    21    18    19    1
    22    13    14    1
    23    14    15    1
    24     4     5    1
    25    24    25   ar
    26    25    26   ar
    27    26    21   ar
    28     5     1    1
    29    15     9    1
    30    19    16    1
    31     3     6    1
@<TRIPOS>MOLECULE
*****
 28 31 0 0 0
SMALL
GASTEIGER

@<TRIPOS>ATOM
      1 C         136.7582  140.5132  155.8754 C.3     1  UNL1        0.1834
      2 C         138.1420  139.9515  155.7354 C.3     1  UNL1        0.1130
      3 N         138.9529  140.4191  156.9075 N.3     1  UNL1       -0.2882
      4 C         138.0703  141.2698  157.7719 C.3     1  UNL1        0.1355
      5 C         136.7139  141.3279  157.1341 C.3     1  UNL1        0.0700
      6 H         139.7492  140.9667  156.5811 H       1  UNL1        0.1237
      7 C         138.4732  141.9439  159.0498 C.2     1  UNL1        0.2401
      8 O         138.9047  143.3805  159.0363 O.2     1  UNL1       -0.2734
      9 N         138.4447  141.1816  160.3414 N.am    1  UNL1       -0.2770
     10 C         137.9982  139.7528  160.2440 C.3     1  UNL1        0.0949
     11 C         137.8631  138.7384  161.3407 C.3     1  UNL1        0.0388
     12 C         138.1412  138.9022  162.8055 C.3     1  UNL1        0.0739
     13 N         138.6229  140.1207  163.5356 N.3     1  UNL1       -0.2725
     14 C         138.9456  141.4766  162.9810 C.3     1  UNL1        0.0938
     15 C         138.8663  141.9486  161.5594 C.3     1  UNL1        0.1107
     16 C         138.8062  139.9626  165.0158 C.3     1  UNL1        0.0576
     17 C         139.6000  140.6777  166.0688 C.3     1  UNL1        0.0160
     18 C         139.0654  139.7389  167.1094 C.3     1  UNL1        0.0028
     19 C         138.2717  139.0237  166.0566 C.3     1  UNL1        0.0160
     20 O         135.6188  140.2979  154.9238 O.3     1  UNL1       -0.4777
     21 C         131.4106  139.9854  156.4868 C.ar    1  UNL1        0.0686
     22 C         132.3837  138.8690  156.7244 C.ar    1  UNL1        0.0134
     23 C         133.7864  138.9732  156.2035 C.ar    1  UNL1        0.0376
     24 C         134.2160  140.1938  155.4448 C.ar    1  UNL1        0.1385
     25 C         133.2429  141.3102  155.2072 C.ar    1  UNL1        0.0376
     26 C         131.8402  141.2061  155.7282 C.ar    1  UNL1        0.0134
     27 N         128.6050  139.7772  157.5288 N.1     1  UNL1       -0.1908
     28 C         130.0078  139.8813  157.0078 C.1     1  UNL1        0.1004
@<TRIPOS>BOND
     1    27    28    3
     2    28    21    1
     3    21    22   ar
     4    22    23   ar
     5    23    24   ar
     6    24    20    1
     7     1    20    1
     8     1     2    1
     9     2     3    1
    10     3     4    1
    11     4     7    1
    12     7     8    2
    13     7     9   am
    14     9    10    1
    15    10    11    1
    16    11    12    1
    17    12    13    1
    18    13    16    1
    19    16    17    1
    20    17    18    1
    21    18    19    1
    22    13    14    1
    23    14    15    1
    24     4     5    1
    25    24    25   ar
    26    25    26   ar
    27    26    21   ar
    28     5     1    1
    29    15     9    1
    30    19    16    1
    31     3     6    1
@<TRIPOS>MOLECULE
*****
 28 31 0 0 0
SMALL
GASTEIGER

@<TRIPOS>ATOM
      1 C         138.9858  138.8884  165.1838 C.3     1  UNL1        0.1834
      2 C         139.8756  137.9449  164.4302 C.3     1  UNL1        0.1130
      3 N         139.7369  138.2456  162.9672 N.3     1  UNL1       -0.2882
      4 C         138.7615  139.3751  162.8166 C.3     1  UNL1        0.1355
      5 C         138.2973  139.7724  164.1865 C.3     1  UNL1        0.0700
      6 H         139.3909  137.4215  162.4757 H       1  UNL1        0.1237
      7 C         138.3266  139.9979  161.5232 C.2     1  UNL1        0.2401
      8 O         137.1026  139.4902  160.8204 O.2     1  UNL1       -0.2734
      9 N         139.1158  141.1285  160.9325 N.am    1  UNL1       -0.2770
     10 C         140.3212  141.5592  161.7146 C.3     1  UNL1        0.0949
     11 C         141.3038  142.6467  161.3952 C.3     1  UNL1        0.0388
     12 C         141.3236  143.5720  160.2149 C.3     1  UNL1        0.0739
     13 N         140.3658  143.6386  159.0623 N.3     1  UNL1       -0.2725
     14 C         139.1516  142.7961  158.8056 C.3     1  UNL1        0.0938
     15 C         138.5953  141.6790  159.6379 C.3     1  UNL1        0.1107
     16 C         140.6613  144.6860  158.0302 C.3     1  UNL1        0.0576
     17 C         140.0504  145.0860  156.7198 C.3     1  UNL1        0.0160
     18 C         141.0791  146.1674  156.5704 C.3     1  UNL1        0.0028
     19 C         141.6900  145.7675  157.8807 C.3     1  UNL1        0.0160
     20 O         138.8146  138.9392  166.6731 O.3     1  UNL1       -0.4777
     21 C         141.3015  141.7741  169.1285 C.ar    1  UNL1        0.0686
     22 C         140.0351  141.2038  169.6950 C.ar    1  UNL1        0.0134
     23 C         139.2062  140.2589  168.8766 C.ar    1  UNL1        0.0376
     24 C         139.6436  139.8842  167.4916 C.ar    1  UNL1        0.1385
     25 C         140.9100  140.4544  166.9251 C.ar    1  UNL1        0.0376
     26 C         141.7390  141.3994  167.7435 C.ar    1  UNL1        0.0134
     27 N         142.9595  143.6640  170.7654 N.1     1  UNL1       -0.1908
     28 C         142.1305  142.7190  169.9470 C.1     1  UNL1        0.1004
@<TRIPOS>BOND
     1    27    28    3
     2    28    21    1
     3    21    22   ar
     4    22    23   ar
     5    23    24   ar
     6    24    20    1
     7     1    20    1
     8     1     2    1
     9     2     3    1
    10     3     4    1
    11     4     7    1
    12     7     8    2
    13     7     9   am
    14     9    10    1
    15    10    11    1
    16    11    12    1
    17    12    13    1
    18    13    16    1
    19    16    17    1
    20    17    18    1
    21    18    19    1
    22    13    14    1
    23    14    15    1
    24     4     5    1
    25    24    25   ar
    26    25    26   ar
    27    26    21   ar
    28     5     1    1
    29    15     9    1
    30    19    16    1
    31     3     6    1
