@<TRIPOS>MOLECULE
*****
 36 40 0 0 0
SMALL
GASTEIGER

@<TRIPOS>ATOM
      1 C         137.7445  141.0749  161.4299 C.3     1  UNL1        0.2588
      2 O         138.0716  141.8194  158.9624 O.2     1  UNL1       -0.2708
      3 C         138.4811  141.8841  160.4039 C.2     1  UNL1        0.2689
      4 N         139.6272  142.7580  160.8195 N.am    1  UNL1       -0.2664
      5 H         139.8960  142.8005  161.7657 H       1  UNL1        0.1564
      6 C         140.3638  143.5672  159.7936 C.ar    1  UNL1        0.1344
      7 C         141.6847  143.0887  159.2680 C.ar    1  UNL1        0.0368
      8 C         142.4213  143.8979  158.2421 C.ar    1  UNL1        0.0341
      9 C         141.8370  145.1857  157.7417 C.ar    1  UNL1        0.1593
     10 F         142.5737  145.9949  156.7158 F       1  UNL1       -0.2025
     11 C         140.5162  145.6642  158.2674 C.ar    1  UNL1        0.1298
     12 N         139.7796  144.8550  159.2934 N.ar    1  UNL1       -0.2267
     13 C         137.6463  139.5855  161.2813 C.3     1  UNL1        0.1261
     14 N         138.7194  138.7030  161.8467 N.3     1  UNL1       -0.2650
     15 C         140.1763  138.4887  161.5611 C.3     1  UNL1        0.1033
     16 C         140.2370  137.4550  162.6463 C.3     1  UNL1        0.1423
     17 O         141.3101  136.5725  163.2117 O.3     1  UNL1       -0.3816
     18 C         138.7802  137.6693  162.9319 C.3     1  UNL1        0.1033
     19 H         142.1433  136.7355  162.7426 H       1  UNL1        0.2105
     20 O         137.1060  141.7551  162.6045 O.3     1  UNL1       -0.4529
     21 C         137.9429  142.5716  163.5443 C.ar    1  UNL1        0.2312
     22 N         138.0938  144.0477  163.3247 N.ar    1  UNL1       -0.1892
     23 C         138.9306  144.8641  164.2644 C.ar    1  UNL1        0.2029
     24 N         139.6165  144.2044  165.4239 N.ar    1  UNL1       -0.2046
     25 C         139.4656  142.7283  165.6435 C.ar    1  UNL1        0.1715
     26 C         138.6288  141.9119  164.7038 C.ar    1  UNL1        0.1098
     27 C         138.6640  140.4868  165.1706 C.ar    1  UNL1        0.1283
     28 N         139.5226  140.4224  166.3989 N.ar    1  UNL1       -0.1619
     29 N         140.0180  141.8078  166.6911 N.ar    1  UNL1       -0.2111
     30 C         140.9093  142.2032  167.8310 C.ar    1  UNL1        0.0949
     31 C         140.3234  142.8446  169.0537 C.ar    1  UNL1        0.0201
     32 C         141.2147  143.2400  170.1935 C.ar    1  UNL1        0.0016
     33 C         142.6921  142.9941  170.1106 C.ar    1  UNL1        0.0010
     34 C         143.2780  142.3526  168.8878 C.ar    1  UNL1        0.0129
     35 C         142.3867  141.9572  167.7480 C.ar    1  UNL1        0.0753
     36 CL        142.9728  141.3158  166.5253 Cl      1  UNL1       -0.0807
@<TRIPOS>BOND
     1     2     3    2
     2     3     4   am
     3     4     6    1
     4     6     7   ar
     5     7     8   ar
     6     8     9   ar
     7     9    10    1
     8     9    11   ar
     9    11    12   ar
    10     3     1    1
    11     1    13    1
    12    13    14    1
    13    14    15    1
    14    15    16    1
    15    16    17    1
    16    16    18    1
    17     1    20    1
    18    20    21    1
    19    21    22   ar
    20    22    23   ar
    21    23    24   ar
    22    24    25   ar
    23    25    26   ar
    24    26    27   ar
    25    27    28   ar
    26    28    29   ar
    27    29    30    1
    28    30    31   ar
    29    31    32   ar
    30    32    33   ar
    31    33    34   ar
    32    34    35   ar
    33    35    36    1
    34    12     6   ar
    35    18    14    1
    36    26    21   ar
    37    35    30   ar
    38    29    25   ar
    39     4     5    1
    40    17    19    1
@<TRIPOS>MOLECULE
*****
 36 40 0 0 0
SMALL
GASTEIGER

@<TRIPOS>ATOM
      1 C         141.1613  144.6119  159.9818 C.3     1  UNL1        0.2588
      2 O         142.3771  146.2093  158.3325 O.2     1  UNL1       -0.2708
      3 C         141.1563  145.4312  158.7253 C.2     1  UNL1        0.2689
      4 N         139.9306  145.4725  157.8617 N.am    1  UNL1       -0.2664
      5 H         139.1293  144.9618  158.1196 H       1  UNL1        0.1564
      6 C         139.9256  146.2918  156.6053 C.ar    1  UNL1        0.1344
      7 C         140.7263  145.8478  155.4172 C.ar    1  UNL1        0.0368
      8 C         140.7213  146.6671  154.1607 C.ar    1  UNL1        0.0341
      9 C         139.9155  147.9305  154.0924 C.ar    1  UNL1        0.1593
     10 F         139.9105  148.7498  152.8359 F       1  UNL1       -0.2025
     11 C         139.1148  148.3745  155.2805 C.ar    1  UNL1        0.1298
     12 N         139.1198  147.5551  156.5370 N.ar    1  UNL1       -0.2267
     13 C         141.2687  143.1179  159.9025 C.3     1  UNL1        0.1261
     14 N         142.4018  142.4101  160.5845 N.3     1  UNL1       -0.2650
     15 C         142.5434  141.1305  161.3543 C.3     1  UNL1        0.1033
     16 C         144.0044  141.4092  161.5488 C.3     1  UNL1        0.1423
     17 O         145.1375  140.7015  162.2307 O.3     1  UNL1       -0.3816
     18 C         143.8628  142.6887  160.7791 C.3     1  UNL1        0.1033
     19 H         144.8130  139.8771  162.6257 H       1  UNL1        0.2105
     20 O         141.0589  145.2866  161.3176 O.3     1  UNL1       -0.4529
     21 C         140.2002  144.6921  162.3943 C.ar    1  UNL1        0.2312
     22 N         138.7057  144.7525  162.2807 N.ar    1  UNL1       -0.1892
     23 C         137.8471  144.1580  163.3574 C.ar    1  UNL1        0.2029
     24 N         138.4829  143.5031  164.5476 N.ar    1  UNL1       -0.2046
     25 C         139.9774  143.4426  164.6613 C.ar    1  UNL1        0.1715
     26 C         140.8360  144.0372  163.5846 C.ar    1  UNL1        0.1098
     27 C         142.2711  143.8281  163.9678 C.ar    1  UNL1        0.1283
     28 N         142.2994  143.1044  165.2813 N.ar    1  UNL1       -0.1619
     29 N         140.8818  142.8661  165.7099 N.ar    1  UNL1       -0.2111
     30 C         140.4452  142.1731  166.9665 C.ar    1  UNL1        0.0949
     31 C         140.5094  142.8927  168.2810 C.ar    1  UNL1        0.0201
     32 C         140.0729  142.1996  169.5376 C.ar    1  UNL1        0.0016
     33 C         139.5720  140.7869  169.4798 C.ar    1  UNL1        0.0010
     34 C         139.5078  140.0673  168.1652 C.ar    1  UNL1        0.0129
     35 C         139.9443  140.7604  166.9086 C.ar    1  UNL1        0.0753
     36 CL        139.8801  140.0407  165.5941 Cl      1  UNL1       -0.0807
@<TRIPOS>BOND
     1     2     3    2
     2     3     4   am
     3     4     6    1
     4     6     7   ar
     5     7     8   ar
     6     8     9   ar
     7     9    10    1
     8     9    11   ar
     9    11    12   ar
    10     3     1    1
    11     1    13    1
    12    13    14    1
    13    14    15    1
    14    15    16    1
    15    16    17    1
    16    16    18    1
    17     1    20    1
    18    20    21    1
    19    21    22   ar
    20    22    23   ar
    21    23    24   ar
    22    24    25   ar
    23    25    26   ar
    24    26    27   ar
    25    27    28   ar
    26    28    29   ar
    27    29    30    1
    28    30    31   ar
    29    31    32   ar
    30    32    33   ar
    31    33    34   ar
    32    34    35   ar
    33    35    36    1
    34    12     6   ar
    35    18    14    1
    36    26    21   ar
    37    35    30   ar
    38    29    25   ar
    39     4     5    1
    40    17    19    1
@<TRIPOS>MOLECULE
*****
 36 40 0 0 0
SMALL
GASTEIGER

@<TRIPOS>ATOM
      1 C         142.2925  139.2626  168.8678 C.3     1  UNL1        0.2588
      2 O         143.4768  139.6079  171.1544 O.2     1  UNL1       -0.2708
      3 C         143.1130  138.7209  170.0008 C.2     1  UNL1        0.2689
      4 N         143.5698  137.2923  169.9799 N.am    1  UNL1       -0.2664
      5 H         143.3311  136.7102  169.2227 H       1  UNL1        0.1564
      6 C         144.3903  136.7506  171.1128 C.ar    1  UNL1        0.1344
      7 C         144.0276  135.4375  171.7406 C.ar    1  UNL1        0.0368
      8 C         144.8481  134.8958  172.8735 C.ar    1  UNL1        0.0341
      9 C         146.0313  135.6673  173.3785 C.ar    1  UNL1        0.1593
     10 F         146.8518  135.1256  174.5113 F       1  UNL1       -0.2025
     11 C         146.3940  136.9804  172.7506 C.ar    1  UNL1        0.1298
     12 N         145.5734  137.5221  171.6177 N.ar    1  UNL1       -0.2267
     13 C         140.9382  139.8490  169.1360 C.3     1  UNL1        0.1261
     14 N         140.8062  141.3007  169.4898 N.3     1  UNL1       -0.2650
     15 C         140.6838  142.0736  170.7696 C.3     1  UNL1        0.1033
     16 C         140.6195  143.3536  169.9902 C.3     1  UNL1        0.1423
     17 O         140.4874  144.8053  170.3440 O.3     1  UNL1       -0.3816
     18 C         140.7419  142.5807  168.7106 C.3     1  UNL1        0.1033
     19 H         140.4339  144.8996  171.3080 H       1  UNL1        0.2105
     20 O         142.8264  139.2177  167.4668 O.3     1  UNL1       -0.4529
     21 C         141.9954  139.7362  166.3306 C.ar    1  UNL1        0.2312
     22 N         140.8821  138.8999  165.7730 N.ar    1  UNL1       -0.1892
     23 C         140.0512  139.4184  164.6369 C.ar    1  UNL1        0.2029
     24 N         140.3337  140.7733  164.0584 N.ar    1  UNL1       -0.2046
     25 C         141.4470  141.6096  164.6161 C.ar    1  UNL1        0.1715
     26 C         142.2779  141.0911  165.7522 C.ar    1  UNL1        0.1098
     27 C         143.3011  142.1341  166.0919 C.ar    1  UNL1        0.1283
     28 N         143.1025  143.2971  165.1657 N.ar    1  UNL1       -0.1619
     29 N         141.9566  142.9730  164.2536 N.ar    1  UNL1       -0.2111
     30 C         141.4154  143.8571  163.1694 C.ar    1  UNL1        0.0949
     31 C         140.3210  144.8358  163.4762 C.ar    1  UNL1        0.0201
     32 C         139.7798  145.7199  162.3919 C.ar    1  UNL1        0.0016
     33 C         140.3330  145.6252  161.0009 C.ar    1  UNL1        0.0010
     34 C         141.4274  144.6464  160.6942 C.ar    1  UNL1        0.0129
     35 C         141.9687  143.7623  161.7784 C.ar    1  UNL1        0.0753
     36 CL        143.0631  142.7836  161.4716 Cl      1  UNL1       -0.0807
@<TRIPOS>BOND
     1     2     3    2
     2     3     4   am
     3     4     6    1
     4     6     7   ar
     5     7     8   ar
     6     8     9   ar
     7     9    10    1
     8     9    11   ar
     9    11    12   ar
    10     3     1    1
    11     1    13    1
    12    13    14    1
    13    14    15    1
    14    15    16    1
    15    16    17    1
    16    16    18    1
    17     1    20    1
    18    20    21    1
    19    21    22   ar
    20    22    23   ar
    21    23    24   ar
    22    24    25   ar
    23    25    26   ar
    24    26    27   ar
    25    27    28   ar
    26    28    29   ar
    27    29    30    1
    28    30    31   ar
    29    31    32   ar
    30    32    33   ar
    31    33    34   ar
    32    34    35   ar
    33    35    36    1
    34    12     6   ar
    35    18    14    1
    36    26    21   ar
    37    35    30   ar
    38    29    25   ar
    39     4     5    1
    40    17    19    1
@<TRIPOS>MOLECULE
*****
 36 40 0 0 0
SMALL
GASTEIGER

@<TRIPOS>ATOM
      1 C         138.0398  140.6609  161.5405 C.3     1  UNL1        0.2588
      2 O         137.8486  143.2251  161.1685 O.2     1  UNL1       -0.2708
      3 C         138.4232  141.8954  160.7794 C.2     1  UNL1        0.2689
      4 N         139.3813  141.8000  159.6292 N.am    1  UNL1       -0.2664
      5 H         139.7585  140.9272  159.3738 H       1  UNL1        0.1564
      6 C         139.7648  143.0343  158.8681 C.ar    1  UNL1        0.1344
      7 C         140.7835  143.9784  159.4345 C.ar    1  UNL1        0.0368
      8 C         141.1670  145.2128  158.6734 C.ar    1  UNL1        0.0341
      9 C         140.5317  145.5031  157.3459 C.ar    1  UNL1        0.1593
     10 F         140.9151  146.7374  156.5848 F       1  UNL1       -0.2025
     11 C         139.5129  144.5589  156.7795 C.ar    1  UNL1        0.1298
     12 N         139.1295  143.3245  157.5407 N.ar    1  UNL1       -0.2267
     13 C         138.3431  139.3058  160.9735 C.3     1  UNL1        0.1261
     14 N         139.7213  138.7288  161.1056 N.3     1  UNL1       -0.2650
     15 C         140.8794  138.5245  160.1744 C.3     1  UNL1        0.1033
     16 C         141.6705  137.9129  161.2925 C.3     1  UNL1        0.1423
     17 O         143.0488  137.3359  161.4246 O.3     1  UNL1       -0.3816
     18 C         140.5125  138.1172  162.2236 C.3     1  UNL1        0.1033
     19 H         143.5041  137.3871  160.5696 H       1  UNL1        0.2105
     20 O         137.3530  140.7817  162.8686 O.3     1  UNL1       -0.4529
     21 C         138.1003  140.4676  164.1307 C.ar    1  UNL1        0.2312
     22 N         138.0997  139.0696  164.6745 N.ar    1  UNL1       -0.1892
     23 C         138.8470  138.7555  165.9365 C.ar    1  UNL1        0.2029
     24 N         139.5949  139.8393  166.6548 N.ar    1  UNL1       -0.2046
     25 C         139.5956  141.2372  166.1110 C.ar    1  UNL1        0.1715
     26 C         138.8483  141.5514  164.8490 C.ar    1  UNL1        0.1098
     27 C         139.0284  143.0112  164.5547 C.ar    1  UNL1        0.1283
     28 N         139.8870  143.5993  165.6350 N.ar    1  UNL1       -0.1619
     29 N         140.2375  142.5029  166.5968 N.ar    1  UNL1       -0.2111
     30 C         141.0818  142.6469  167.8282 C.ar    1  UNL1        0.0949
     31 C         140.5027  143.2637  169.0668 C.ar    1  UNL1        0.0201
     32 C         141.3470  143.4077  170.2982 C.ar    1  UNL1        0.0016
     33 C         142.7705  142.9348  170.2911 C.ar    1  UNL1        0.0010
     34 C         143.3496  142.3179  169.0526 C.ar    1  UNL1        0.0129
     35 C         142.5053  142.1739  167.8212 C.ar    1  UNL1        0.0753
     36 CL        143.0845  141.5571  166.5826 Cl      1  UNL1       -0.0807
@<TRIPOS>BOND
     1     2     3    2
     2     3     4   am
     3     4     6    1
     4     6     7   ar
     5     7     8   ar
     6     8     9   ar
     7     9    10    1
     8     9    11   ar
     9    11    12   ar
    10     3     1    1
    11     1    13    1
    12    13    14    1
    13    14    15    1
    14    15    16    1
    15    16    17    1
    16    16    18    1
    17     1    20    1
    18    20    21    1
    19    21    22   ar
    20    22    23   ar
    21    23    24   ar
    22    24    25   ar
    23    25    26   ar
    24    26    27   ar
    25    27    28   ar
    26    28    29   ar
    27    29    30    1
    28    30    31   ar
    29    31    32   ar
    30    32    33   ar
    31    33    34   ar
    32    34    35   ar
    33    35    36    1
    34    12     6   ar
    35    18    14    1
    36    26    21   ar
    37    35    30   ar
    38    29    25   ar
    39     4     5    1
    40    17    19    1
@<TRIPOS>MOLECULE
*****
 36 40 0 0 0
SMALL
GASTEIGER

@<TRIPOS>ATOM
      1 C         142.3223  139.5401  167.2063 C.3     1  UNL1        0.2588
      2 O         139.8390  139.7369  166.4683 O.2     1  UNL1       -0.2708
      3 C         141.2280  140.3010  166.5181 C.2     1  UNL1        0.2689
      4 N         141.5227  141.6259  165.8796 N.am    1  UNL1       -0.2664
      5 H         142.4344  141.9961  165.9123 H       1  UNL1        0.1564
      6 C         140.4285  142.3868  165.1914 C.ar    1  UNL1        0.1344
      7 C         139.8274  143.5944  165.8476 C.ar    1  UNL1        0.0368
      8 C         138.7332  144.3553  165.1594 C.ar    1  UNL1        0.0341
      9 C         138.2400  143.9086  163.8150 C.ar    1  UNL1        0.1593
     10 F         137.1458  144.6695  163.1268 F       1  UNL1       -0.2025
     11 C         138.8411  142.7011  163.1588 C.ar    1  UNL1        0.1298
     12 N         139.9354  141.9402  163.8471 N.ar    1  UNL1       -0.2267
     13 C         142.4294  139.5684  168.7022 C.3     1  UNL1        0.1261
     14 N         141.6063  140.5403  169.4947 N.3     1  UNL1       -0.2650
     15 C         140.2353  140.5203  170.1030 C.3     1  UNL1        0.1033
     16 C         140.4424  141.9147  170.6155 C.3     1  UNL1        0.1423
     17 O         139.6194  142.8865  171.4080 O.3     1  UNL1       -0.3816
     18 C         141.8133  141.9347  170.0073 C.3     1  UNL1        0.1033
     19 H         138.7616  142.4863  171.6201 H       1  UNL1        0.2105
     20 O         143.3095  138.7508  166.3985 O.3     1  UNL1       -0.4529
     21 C         143.5264  139.0783  164.9508 C.ar    1  UNL1        0.2312
     22 N         144.6350  140.0056  164.5496 N.ar    1  UNL1       -0.1892
     23 C         144.8518  140.3331  163.1019 C.ar    1  UNL1        0.2029
     24 N         143.9601  139.7332  162.0556 N.ar    1  UNL1       -0.2046
     25 C         142.8515  138.8059  162.4568 C.ar    1  UNL1        0.1715
     26 C         142.6346  138.4785  163.9044 C.ar    1  UNL1        0.1098
     27 C         141.4692  137.5387  163.9976 C.ar    1  UNL1        0.1283
     28 N         140.9658  137.2854  162.6075 N.ar    1  UNL1       -0.1619
     29 N         141.8201  138.0686  161.6553 N.ar    1  UNL1       -0.2111
     30 C         141.6694  138.1076  160.1634 C.ar    1  UNL1        0.0949
     31 C         142.8054  137.6776  159.2833 C.ar    1  UNL1        0.0201
     32 C         142.6548  137.7166  157.7914 C.ar    1  UNL1        0.0016
     33 C         141.3680  138.1856  157.1795 C.ar    1  UNL1        0.0010
     34 C         140.2321  138.6156  158.0596 C.ar    1  UNL1        0.0129
     35 C         140.3827  138.5766  159.5515 C.ar    1  UNL1        0.0753
     36 CL        139.2466  139.0066  160.4315 Cl      1  UNL1       -0.0807
@<TRIPOS>BOND
     1     2     3    2
     2     3     4   am
     3     4     6    1
     4     6     7   ar
     5     7     8   ar
     6     8     9   ar
     7     9    10    1
     8     9    11   ar
     9    11    12   ar
    10     3     1    1
    11     1    13    1
    12    13    14    1
    13    14    15    1
    14    15    16    1
    15    16    17    1
    16    16    18    1
    17     1    20    1
    18    20    21    1
    19    21    22   ar
    20    22    23   ar
    21    23    24   ar
    22    24    25   ar
    23    25    26   ar
    24    26    27   ar
    25    27    28   ar
    26    28    29   ar
    27    29    30    1
    28    30    31   ar
    29    31    32   ar
    30    32    33   ar
    31    33    34   ar
    32    34    35   ar
    33    35    36    1
    34    12     6   ar
    35    18    14    1
    36    26    21   ar
    37    35    30   ar
    38    29    25   ar
    39     4     5    1
    40    17    19    1
@<TRIPOS>MOLECULE
*****
 36 40 0 0 0
SMALL
GASTEIGER

@<TRIPOS>ATOM
      1 C         139.3022  138.2547  161.6742 C.3     1  UNL1        0.2588
      2 O         139.1803  138.5334  159.0940 O.2     1  UNL1       -0.2708
      3 C         139.9903  138.4091  160.3503 C.2     1  UNL1        0.2689
      4 N         141.4885  138.4393  160.2828 N.am    1  UNL1       -0.2664
      5 H         142.0201  138.3577  161.1074 H       1  UNL1        0.1564
      6 C         142.1766  138.5937  158.9589 C.ar    1  UNL1        0.1344
      7 C         142.7511  139.9214  158.5626 C.ar    1  UNL1        0.0368
      8 C         143.4392  140.0758  157.2388 C.ar    1  UNL1        0.0341
      9 C         143.5529  138.9024  156.3112 C.ar    1  UNL1        0.1593
     10 F         144.2411  139.0569  154.9874 F       1  UNL1       -0.2025
     11 C         142.9784  137.5747  156.7075 C.ar    1  UNL1        0.1298
     12 N         142.2903  137.4203  158.0314 N.ar    1  UNL1       -0.2267
     13 C         137.9718  138.9067  161.9086 C.3     1  UNL1        0.1261
     14 N         137.8750  140.4006  162.0036 N.3     1  UNL1       -0.2650
     15 C         138.1948  141.5446  161.0875 C.3     1  UNL1        0.1033
     16 C         137.7382  142.5132  162.1379 C.3     1  UNL1        0.1423
     17 O         137.6414  144.0071  162.2329 O.3     1  UNL1       -0.3816
     18 C         137.4184  141.3693  163.0538 C.3     1  UNL1        0.1033
     19 H         137.9553  144.4047  161.4057 H       1  UNL1        0.2105
     20 O         139.9445  137.4483  162.7638 O.3     1  UNL1       -0.4529
     21 C         140.8459  138.1163  163.7594 C.ar    1  UNL1        0.2312
     22 N         142.3215  138.1937  163.5014 N.ar    1  UNL1       -0.1892
     23 C         143.2229  138.8618  164.4970 C.ar    1  UNL1        0.2029
     24 N         142.6486  139.4524  165.7505 N.ar    1  UNL1       -0.2046
     25 C         141.1730  139.3751  166.0085 C.ar    1  UNL1        0.1715
     26 C         140.2717  138.7070  165.0129 C.ar    1  UNL1        0.1098
     27 C         138.8675  138.7824  165.5352 C.ar    1  UNL1        0.1283
     28 N         138.9011  139.4971  166.8535 N.ar    1  UNL1       -0.1619
     29 N         140.3260  139.8633  167.1461 N.ar    1  UNL1       -0.2111
     30 C         140.8175  140.5903  168.3626 C.ar    1  UNL1        0.0949
     31 C         141.2362  139.8191  169.5791 C.ar    1  UNL1        0.0201
     32 C         141.7277  140.5460  170.7956 C.ar    1  UNL1        0.0016
     33 C         141.8007  142.0442  170.7956 C.ar    1  UNL1        0.0010
     34 C         141.3820  142.8154  169.5791 C.ar    1  UNL1        0.0129
     35 C         140.8905  142.0885  168.3626 C.ar    1  UNL1        0.0753
     36 CL        140.4719  142.8598  167.1461 Cl      1  UNL1       -0.0807
@<TRIPOS>BOND
     1     2     3    2
     2     3     4   am
     3     4     6    1
     4     6     7   ar
     5     7     8   ar
     6     8     9   ar
     7     9    10    1
     8     9    11   ar
     9    11    12   ar
    10     3     1    1
    11     1    13    1
    12    13    14    1
    13    14    15    1
    14    15    16    1
    15    16    17    1
    16    16    18    1
    17     1    20    1
    18    20    21    1
    19    21    22   ar
    20    22    23   ar
    21    23    24   ar
    22    24    25   ar
    23    25    26   ar
    24    26    27   ar
    25    27    28   ar
    26    28    29   ar
    27    29    30    1
    28    30    31   ar
    29    31    32   ar
    30    32    33   ar
    31    33    34   ar
    32    34    35   ar
    33    35    36    1
    34    12     6   ar
    35    18    14    1
    36    26    21   ar
    37    35    30   ar
    38    29    25   ar
    39     4     5    1
    40    17    19    1
@<TRIPOS>MOLECULE
*****
 36 40 0 0 0
SMALL
GASTEIGER

@<TRIPOS>ATOM
      1 C         141.1134  144.4875  159.9407 C.3     1  UNL1        0.2588
      2 O         142.3758  146.0680  158.3102 O.2     1  UNL1       -0.2708
      3 C         141.1450  145.2923  158.6751 C.2     1  UNL1        0.2689
      4 N         139.9458  145.3211  157.7746 N.am    1  UNL1       -0.2664
      5 H         139.1380  144.8119  158.0141 H       1  UNL1        0.1564
      6 C         139.9774  146.1258  156.5091 C.ar    1  UNL1        0.1344
      7 C         139.1569  147.3763  156.3948 C.ar    1  UNL1        0.0368
      8 C         139.1884  148.1809  155.1293 C.ar    1  UNL1        0.0341
      9 C         140.0405  147.7351  153.9781 C.ar    1  UNL1        0.1593
     10 F         140.0721  148.5398  152.7126 F       1  UNL1       -0.2025
     11 C         140.8610  146.4846  154.0924 C.ar    1  UNL1        0.1298
     12 N         140.8294  145.6800  155.3580 N.ar    1  UNL1       -0.2267
     13 C         141.1163  142.9889  159.8768 C.3     1  UNL1        0.1261
     14 N         139.9708  142.2634  159.2353 N.3     1  UNL1       -0.2650
     15 C         138.5602  141.9450  159.6341 C.3     1  UNL1        0.1033
     16 C         138.3508  141.2374  158.3282 C.3     1  UNL1        0.1423
     17 O         137.2054  140.5118  157.6867 O.3     1  UNL1       -0.3816
     18 C         139.7613  141.5557  157.9295 C.3     1  UNL1        0.1033
     19 H         136.4406  140.5232  158.2833 H       1  UNL1        0.2105
     20 O         141.0790  145.1815  161.2700 O.3     1  UNL1       -0.4529
     21 C         140.2198  144.6427  162.3753 C.ar    1  UNL1        0.2312
     22 N         138.7274  144.7709  162.2956 N.ar    1  UNL1       -0.1892
     23 C         137.8683  144.2321  163.4008 C.ar    1  UNL1        0.2029
     24 N         138.5015  143.5652  164.5858 N.ar    1  UNL1       -0.2046
     25 C         139.9939  143.4370  164.6655 C.ar    1  UNL1        0.1715
     26 C         140.8530  143.9758  163.5603 C.ar    1  UNL1        0.1098
     27 C         142.2857  143.7056  163.9132 C.ar    1  UNL1        0.1283
     28 N         142.3120  142.9999  165.2365 N.ar    1  UNL1       -0.1619
     29 N         140.8956  142.8339  165.7015 N.ar    1  UNL1       -0.2111
     30 C         140.4577  142.1796  166.9782 C.ar    1  UNL1        0.0949
     31 C         140.5196  142.9394  168.2700 C.ar    1  UNL1        0.0201
     32 C         140.0817  142.2852  169.5468 C.ar    1  UNL1        0.0016
     33 C         139.5819  140.8710  169.5318 C.ar    1  UNL1        0.0010
     34 C         139.5200  140.1111  168.2400 C.ar    1  UNL1        0.0129
     35 C         139.9579  140.7654  166.9633 C.ar    1  UNL1        0.0753
     36 CL        139.8959  140.0055  165.6715 Cl      1  UNL1       -0.0807
@<TRIPOS>BOND
     1     2     3    2
     2     3     4   am
     3     4     6    1
     4     6     7   ar
     5     7     8   ar
     6     8     9   ar
     7     9    10    1
     8     9    11   ar
     9    11    12   ar
    10     3     1    1
    11     1    13    1
    12    13    14    1
    13    14    15    1
    14    15    16    1
    15    16    17    1
    16    16    18    1
    17     1    20    1
    18    20    21    1
    19    21    22   ar
    20    22    23   ar
    21    23    24   ar
    22    24    25   ar
    23    25    26   ar
    24    26    27   ar
    25    27    28   ar
    26    28    29   ar
    27    29    30    1
    28    30    31   ar
    29    31    32   ar
    30    32    33   ar
    31    33    34   ar
    32    34    35   ar
    33    35    36    1
    34    12     6   ar
    35    18    14    1
    36    26    21   ar
    37    35    30   ar
    38    29    25   ar
    39     4     5    1
    40    17    19    1
@<TRIPOS>MOLECULE
*****
 36 40 0 0 0
SMALL
GASTEIGER

@<TRIPOS>ATOM
      1 C         144.3367  140.6554  164.1842 C.3     1  UNL1        0.2588
      2 O         143.4758  142.0690  166.1868 O.2     1  UNL1       -0.2708
      3 C         143.5975  140.7484  165.4862 C.2     1  UNL1        0.2689
      4 N         142.9802  139.5206  166.0874 N.am    1  UNL1       -0.2664
      5 H         143.0601  138.6538  165.6275 H       1  UNL1        0.1564
      6 C         142.2411  139.6136  167.3893 C.ar    1  UNL1        0.1344
      7 C         140.8028  140.0392  167.4066 C.ar    1  UNL1        0.0368
      8 C         140.0637  140.1322  168.7085 C.ar    1  UNL1        0.0341
      9 C         140.7628  139.7994  169.9933 C.ar    1  UNL1        0.1593
     10 F         140.0237  139.8924  171.2952 F       1  UNL1       -0.2025
     11 C         142.2011  139.3738  169.9760 C.ar    1  UNL1        0.1298
     12 N         142.9402  139.2809  168.6740 N.ar    1  UNL1       -0.2267
     13 C         144.9434  141.8853  163.5767 C.3     1  UNL1        0.1261
     14 N         144.0755  142.8683  162.8483 N.3     1  UNL1       -0.2650
     15 C         143.2198  142.8193  161.6173 C.3     1  UNL1        0.1033
     16 C         142.8482  144.2586  161.8184 C.3     1  UNL1        0.1423
     17 O         141.9803  145.2416  161.0901 O.3     1  UNL1       -0.3816
     18 C         143.7038  144.3076  163.0493 C.3     1  UNL1        0.1033
     19 H         141.5845  144.8119  160.3157 H       1  UNL1        0.2105
     20 O         144.4691  139.3324  163.4897 O.3     1  UNL1       -0.4529
     21 C         143.3121  138.7721  162.7166 C.ar    1  UNL1        0.2312
     22 N         142.1961  138.0750  163.4367 N.ar    1  UNL1       -0.1892
     23 C         141.0392  137.5148  162.6636 C.ar    1  UNL1        0.2029
     24 N         140.9984  137.6515  161.1704 N.ar    1  UNL1       -0.2046
     25 C         142.1145  138.3485  160.4503 C.ar    1  UNL1        0.1715
     26 C         143.2713  138.9088  161.2234 C.ar    1  UNL1        0.1098
     27 C         144.2193  139.5398  160.2470 C.ar    1  UNL1        0.1283
     28 N         143.6483  139.3694  158.8705 N.ar    1  UNL1       -0.1619
     29 N         142.3474  138.6332  158.9962 N.ar    1  UNL1       -0.2111
     30 C         141.4390  138.2490  157.8660 C.ar    1  UNL1        0.0949
     31 C         140.2238  139.0757  157.5663 C.ar    1  UNL1        0.0201
     32 C         139.3154  138.6916  156.4362 C.ar    1  UNL1        0.0016
     33 C         139.6222  137.4807  155.6057 C.ar    1  UNL1        0.0010
     34 C         140.8374  136.6540  155.9054 C.ar    1  UNL1        0.0129
     35 C         141.7458  137.0382  157.0355 C.ar    1  UNL1        0.0753
     36 CL        142.9610  136.2114  157.3352 Cl      1  UNL1       -0.0807
@<TRIPOS>BOND
     1     2     3    2
     2     3     4   am
     3     4     6    1
     4     6     7   ar
     5     7     8   ar
     6     8     9   ar
     7     9    10    1
     8     9    11   ar
     9    11    12   ar
    10     3     1    1
    11     1    13    1
    12    13    14    1
    13    14    15    1
    14    15    16    1
    15    16    17    1
    16    16    18    1
    17     1    20    1
    18    20    21    1
    19    21    22   ar
    20    22    23   ar
    21    23    24   ar
    22    24    25   ar
    23    25    26   ar
    24    26    27   ar
    25    27    28   ar
    26    28    29   ar
    27    29    30    1
    28    30    31   ar
    29    31    32   ar
    30    32    33   ar
    31    33    34   ar
    32    34    35   ar
    33    35    36    1
    34    12     6   ar
    35    18    14    1
    36    26    21   ar
    37    35    30   ar
    38    29    25   ar
    39     4     5    1
    40    17    19    1
@<TRIPOS>MOLECULE
*****
 36 40 0 0 0
SMALL
GASTEIGER

@<TRIPOS>ATOM
      1 C         139.1549  138.3747  162.6100 C.3     1  UNL1        0.2588
      2 O         139.2460  137.3284  164.9864 O.2     1  UNL1       -0.2708
      3 C         139.5220  138.4761  164.0609 C.2     1  UNL1        0.2689
      4 N         140.1650  139.7253  164.5863 N.am    1  UNL1       -0.2664
      5 H         140.3461  140.4786  163.9788 H       1  UNL1        0.1564
      6 C         140.5321  139.8268  166.0371 C.ar    1  UNL1        0.1344
      7 C         141.9419  139.5600  166.4745 C.ar    1  UNL1        0.0368
      8 C         142.3090  139.6615  167.9253 C.ar    1  UNL1        0.0341
      9 C         141.2662  140.0298  168.9388 C.ar    1  UNL1        0.1593
     10 F         141.6333  140.1312  170.3896 F       1  UNL1       -0.2025
     11 C         139.8564  140.2965  168.5014 C.ar    1  UNL1        0.1298
     12 N         139.4894  140.1950  167.0505 N.ar    1  UNL1       -0.2267
     13 C         137.9500  139.1003  162.0887 C.3     1  UNL1        0.1261
     14 N         137.8750  140.5953  162.1851 N.3     1  UNL1       -0.2650
     15 C         138.3430  141.7380  161.3334 C.3     1  UNL1        0.1033
     16 C         137.7689  142.7096  162.3215 C.3     1  UNL1        0.1423
     17 O         137.6938  144.2046  162.4179 O.3     1  UNL1       -0.3816
     18 C         137.3009  141.5670  163.1732 C.3     1  UNL1        0.1033
     19 H         138.1269  144.6005  161.6455 H       1  UNL1        0.2105
     20 O         139.9926  137.5475  161.6805 O.3     1  UNL1       -0.4529
     21 C         141.3663  138.0113  161.2956 C.ar    1  UNL1        0.2312
     22 N         142.5232  137.7793  162.2218 N.ar    1  UNL1       -0.1892
     23 C         143.8967  138.2430  161.8369 C.ar    1  UNL1        0.2029
     24 N         144.1135  138.9388  160.5258 N.ar    1  UNL1       -0.2046
     25 C         142.9566  139.1709  159.5997 C.ar    1  UNL1        0.1715
     26 C         141.5830  138.7071  159.9846 C.ar    1  UNL1        0.1098
     27 C         140.6423  139.0733  158.8750 C.ar    1  UNL1        0.1283
     28 N         141.4345  139.7633  157.8044 N.ar    1  UNL1       -0.1619
     29 N         142.8648  139.8237  158.2523 N.ar    1  UNL1       -0.2111
     30 C         144.0035  140.4303  157.4871 C.ar    1  UNL1        0.0949
     31 C         144.5064  139.7669  156.2394 C.ar    1  UNL1        0.0201
     32 C         145.6451  140.3735  155.4742 C.ar    1  UNL1        0.0016
     33 C         146.2808  141.6435  155.9568 C.ar    1  UNL1        0.0010
     34 C         145.7779  142.3069  157.2045 C.ar    1  UNL1        0.0129
     35 C         144.6392  141.7003  157.9697 C.ar    1  UNL1        0.0753
     36 CL        144.1363  142.3637  159.2175 Cl      1  UNL1       -0.0807
@<TRIPOS>BOND
     1     2     3    2
     2     3     4   am
     3     4     6    1
     4     6     7   ar
     5     7     8   ar
     6     8     9   ar
     7     9    10    1
     8     9    11   ar
     9    11    12   ar
    10     3     1    1
    11     1    13    1
    12    13    14    1
    13    14    15    1
    14    15    16    1
    15    16    17    1
    16    16    18    1
    17     1    20    1
    18    20    21    1
    19    21    22   ar
    20    22    23   ar
    21    23    24   ar
    22    24    25   ar
    23    25    26   ar
    24    26    27   ar
    25    27    28   ar
    26    28    29   ar
    27    29    30    1
    28    30    31   ar
    29    31    32   ar
    30    32    33   ar
    31    33    34   ar
    32    34    35   ar
    33    35    36    1
    34    12     6   ar
    35    18    14    1
    36    26    21   ar
    37    35    30   ar
    38    29    25   ar
    39     4     5    1
    40    17    19    1
