@<TRIPOS>MOLECULE
*****
 31 34 0 0 0
SMALL
GASTEIGER

@<TRIPOS>ATOM
      1 C         139.7642  141.5620  164.4411 C.ar    1  UNL1        0.1062
      2 C         138.6535  142.2193  163.6766 C.ar    1  UNL1        0.1685
      3 F         137.2551  142.1989  164.2191 F       1  UNL1       -0.2015
      4 C         138.9412  142.8970  162.3697 C.ar    1  UNL1        0.0752
      5 N         137.8305  143.5543  161.6053 N.pl3   1  UNL1       -0.3551
      6 C         140.3396  142.9174  161.8273 C.ar    1  UNL1        0.0722
      7 C         140.6272  143.5950  160.5204 C.ar    1  UNL1        0.2008
      8 O         139.5166  144.2523  159.7559 O.2     1  UNL1       -0.2864
      9 C         142.0256  143.6154  159.9780 C.ar    1  UNL1        0.0702
     10 C         143.1362  142.9581  160.7425 C.ar    1  UNL1        0.0802
     11 N         142.8485  142.2805  162.0494 N.ar    1  UNL1       -0.3259
     12 C         141.4502  142.2601  162.5918 C.ar    1  UNL1        0.0933
     13 C         141.1625  141.5824  163.8987 C.ar    1  UNL1        0.1713
     14 F         142.2731  140.9251  164.6632 F       1  UNL1       -0.2013
     15 H         136.9128  143.5409  161.9613 H       1  UNL1        0.1424
     16 H         138.0194  143.9991  160.7475 H       1  UNL1        0.1424
     17 C         137.3348  137.8498  167.1462 C.3     1  UNL1        0.0189
     18 C         138.2617  139.0282  167.1006 C.3     1  UNL1        0.0741
     19 C         138.5495  139.7059  165.7937 C.3     1  UNL1        0.1066
     20 N         139.4764  140.8843  165.7481 N.pl3   1  UNL1       -0.3012
     21 C         140.1156  141.3851  167.0092 C.3     1  UNL1        0.1066
     22 C         139.8279  140.7074  168.3161 C.3     1  UNL1        0.0741
     23 C         140.4671  141.2082  169.5774 C.3     1  UNL1        0.0189
     24 N         138.9009  139.5290  168.3617 N.3     1  UNL1       -0.2969
     25 H         138.1429  139.7751  168.9984 H       1  UNL1        0.1233
     26 C         142.3133  144.2931  158.6711 C.2     1  UNL1        0.0774
     27 O         142.7300  143.4809  157.4809 O.co2   1  UNL1       -0.5444
     28 O         142.1843  145.7830  158.5544 O.co2   1  UNL1       -0.5444
     29 C         143.9592  141.6232  162.8139 C.3     1  UNL1        0.0857
     30 C         144.7439  140.3943  163.1661 C.3     1  UNL1        0.0245
     31 C         145.0981  141.7136  163.7857 C.3     1  UNL1        0.0245
@<TRIPOS>UNITY_ATOM_ATTR
27 1
charge -1
@<TRIPOS>BOND
     1    18    17    1
     2    18    19    1
     3    19    20    1
     4    20     1    1
     5     1     2   ar
     6     2     3    1
     7     2     4   ar
     8     4     5    1
     9     4     6   ar
    10     6     7   ar
    11     7     8    2
    12     7     9   ar
    13     9    26    1
    14    26    27   ar
    15    26    28   ar
    16     9    10   ar
    17    10    11   ar
    18    11    29    1
    19    29    30    1
    20    30    31    1
    21    11    12   ar
    22    12    13   ar
    23    13    14    1
    24    20    21    1
    25    21    22    1
    26    22    23    1
    27    22    24    1
    28    24    18    1
    29    13     1   ar
    30    12     6   ar
    31    31    29    1
    32     5    15    1
    33     5    16    1
    34    24    25    1
@<TRIPOS>MOLECULE
*****
 31 34 0 0 0
SMALL
GASTEIGER

@<TRIPOS>ATOM
      1 C         140.2307  139.5509  164.2298 C.ar    1  UNL1        0.1062
      2 C         139.1829  138.8273  165.0225 C.ar    1  UNL1        0.1685
      3 F         138.3511  137.7628  164.3705 F       1  UNL1       -0.2015
      4 C         138.9669  139.1681  166.4672 C.ar    1  UNL1        0.0752
      5 N         137.9191  138.4445  167.2600 N.pl3   1  UNL1       -0.3551
      6 C         139.7987  140.2326  167.1192 C.ar    1  UNL1        0.0722
      7 C         139.5827  140.5734  168.5639 C.ar    1  UNL1        0.2008
      8 O         138.5349  139.8498  169.3566 O.2     1  UNL1       -0.2864
      9 C         140.4145  141.6379  169.2158 C.ar    1  UNL1        0.0702
     10 C         141.4623  142.3615  168.4230 C.ar    1  UNL1        0.0802
     11 N         141.6783  142.0207  166.9783 N.ar    1  UNL1       -0.3259
     12 C         140.8465  140.9562  166.3264 C.ar    1  UNL1        0.0933
     13 C         141.0625  140.6154  164.8817 C.ar    1  UNL1        0.1713
     14 F         142.1102  141.3390  164.0889 F       1  UNL1       -0.2013
     15 H         137.3732  137.7458  166.8321 H       1  UNL1        0.1424
     16 H         137.7773  138.6682  168.2082 H       1  UNL1        0.1424
     17 C         143.1201  137.3648  160.5053 C.3     1  UNL1        0.0189
     18 C         141.8914  138.1170  160.9228 C.3     1  UNL1        0.0741
     19 C         141.6754  138.4578  162.3675 C.3     1  UNL1        0.1066
     20 N         140.4466  139.2101  162.7850 N.pl3   1  UNL1       -0.3012
     21 C         139.4339  139.6214  161.7579 C.3     1  UNL1        0.1066
     22 C         139.6499  139.2805  160.3132 C.3     1  UNL1        0.0741
     23 C         138.6371  139.6919  159.2860 C.3     1  UNL1        0.0189
     24 N         140.8786  138.5283  159.8957 N.3     1  UNL1       -0.2969
     25 H         141.3671  139.1147  159.2189 H       1  UNL1        0.1233
     26 C         140.1985  141.9787  170.6605 C.2     1  UNL1        0.0774
     27 O         140.7379  141.0785  171.7323 O.co2   1  UNL1       -0.5444
     28 O         139.4432  143.2198  171.0335 O.co2   1  UNL1       -0.5444
     29 C         142.7261  142.7443  166.1855 C.3     1  UNL1        0.0857
     30 C         143.0970  143.7391  165.1259 C.3     1  UNL1        0.0245
     31 C         144.1699  143.0029  165.8721 C.3     1  UNL1        0.0245
@<TRIPOS>UNITY_ATOM_ATTR
27 1
charge -1
@<TRIPOS>BOND
     1    18    17    1
     2    18    19    1
     3    19    20    1
     4    20     1    1
     5     1     2   ar
     6     2     3    1
     7     2     4   ar
     8     4     5    1
     9     4     6   ar
    10     6     7   ar
    11     7     8    2
    12     7     9   ar
    13     9    26    1
    14    26    27   ar
    15    26    28   ar
    16     9    10   ar
    17    10    11   ar
    18    11    29    1
    19    29    30    1
    20    30    31    1
    21    11    12   ar
    22    12    13   ar
    23    13    14    1
    24    20    21    1
    25    21    22    1
    26    22    23    1
    27    22    24    1
    28    24    18    1
    29    13     1   ar
    30    12     6   ar
    31    31    29    1
    32     5    15    1
    33     5    16    1
    34    24    25    1
@<TRIPOS>MOLECULE
*****
 31 34 0 0 0
SMALL
GASTEIGER

@<TRIPOS>ATOM
      1 C         139.8088  141.6224  164.4590 C.ar    1  UNL1        0.1062
      2 C         138.6922  142.2674  163.6927 C.ar    1  UNL1        0.1685
      3 F         137.2953  142.2423  164.2388 F       1  UNL1       -0.2015
      4 C         138.9724  142.9373  162.3802 C.ar    1  UNL1        0.0752
      5 N         137.8559  143.5822  161.6138 N.pl3   1  UNL1       -0.3551
      6 C         140.3693  142.9624  161.8341 C.ar    1  UNL1        0.0722
      7 C         140.6496  143.6324  160.5216 C.ar    1  UNL1        0.2008
      8 O         139.5330  144.2773  159.7552 O.2     1  UNL1       -0.2864
      9 C         142.0464  143.6574  159.9755 C.ar    1  UNL1        0.0702
     10 C         143.1629  143.0125  160.7419 C.ar    1  UNL1        0.0802
     11 N         142.8827  142.3425  162.0544 N.ar    1  UNL1       -0.3259
     12 C         141.4859  142.3175  162.6004 C.ar    1  UNL1        0.0933
     13 C         141.2056  141.6475  163.9130 C.ar    1  UNL1        0.1713
     14 F         142.3222  141.0025  164.6793 F       1  UNL1       -0.2013
     15 H         136.9391  143.5658  161.9723 H       1  UNL1        0.1424
     16 H         138.0398  144.0220  160.7524 H       1  UNL1        0.1424
     17 C         140.5416  141.2984  169.5930 C.3     1  UNL1        0.0189
     18 C         139.8949  140.7904  168.3385 C.3     1  UNL1        0.0741
     19 C         140.1752  141.4604  167.0261 C.3     1  UNL1        0.1066
     20 N         139.5285  140.9524  165.7715 N.pl3   1  UNL1       -0.3012
     21 C         138.6016  139.7746  165.8295 C.3     1  UNL1        0.1066
     22 C         138.3213  139.1046  167.1420 C.3     1  UNL1        0.0741
     23 C         137.3944  137.9267  167.2000 C.3     1  UNL1        0.0189
     24 N         138.9680  139.6126  168.3965 N.3     1  UNL1       -0.2969
     25 H         139.5021  138.8365  168.7874 H       1  UNL1        0.1233
     26 C         142.3267  144.3274  158.6630 C.2     1  UNL1        0.0774
     27 O         142.6824  143.5034  157.4612 O.co2   1  UNL1       -0.5444
     28 O         142.2512  145.8214  158.5524 O.co2   1  UNL1       -0.5444
     29 C         143.9993  141.6976  162.8207 C.3     1  UNL1        0.0857
     30 C         144.7599  140.4681  163.2205 C.3     1  UNL1        0.0245
     31 C         145.1726  141.8101  163.7484 C.3     1  UNL1        0.0245
@<TRIPOS>UNITY_ATOM_ATTR
27 1
charge -1
@<TRIPOS>BOND
     1    18    17    1
     2    18    19    1
     3    19    20    1
     4    20     1    1
     5     1     2   ar
     6     2     3    1
     7     2     4   ar
     8     4     5    1
     9     4     6   ar
    10     6     7   ar
    11     7     8    2
    12     7     9   ar
    13     9    26    1
    14    26    27   ar
    15    26    28   ar
    16     9    10   ar
    17    10    11   ar
    18    11    29    1
    19    29    30    1
    20    30    31    1
    21    11    12   ar
    22    12    13   ar
    23    13    14    1
    24    20    21    1
    25    21    22    1
    26    22    23    1
    27    22    24    1
    28    24    18    1
    29    13     1   ar
    30    12     6   ar
    31    31    29    1
    32     5    15    1
    33     5    16    1
    34    24    25    1
@<TRIPOS>MOLECULE
*****
 31 34 0 0 0
SMALL
GASTEIGER

@<TRIPOS>ATOM
      1 C         141.7649  141.4899  166.4802 C.ar    1  UNL1        0.1062
      2 C         142.9487  142.4087  166.4143 C.ar    1  UNL1        0.1685
      3 F         143.8017  142.6212  167.6298 F       1  UNL1       -0.2015
      4 C         143.2796  143.1148  165.1330 C.ar    1  UNL1        0.0752
      5 N         144.4635  144.0336  165.0671 N.pl3   1  UNL1       -0.3551
      6 C         142.4267  142.9023  163.9175 C.ar    1  UNL1        0.0722
      7 C         142.7576  143.6085  162.6362 C.ar    1  UNL1        0.2008
      8 O         143.9414  144.5272  162.5703 O.2     1  UNL1       -0.2864
      9 C         141.9046  143.3959  161.4208 C.ar    1  UNL1        0.0702
     10 C         140.7207  142.4771  161.4867 C.ar    1  UNL1        0.0802
     11 N         140.3898  141.7710  162.7680 N.ar    1  UNL1       -0.3259
     12 C         141.2428  141.9835  163.9834 C.ar    1  UNL1        0.0933
     13 C         140.9119  141.2773  165.2648 C.ar    1  UNL1        0.1713
     14 F         139.7280  140.3586  165.3307 F       1  UNL1       -0.2013
     15 H         145.0234  144.1731  165.8648 H       1  UNL1        0.1424
     16 H         144.6807  144.4971  164.2261 H       1  UNL1        0.1424
     17 C         138.4429  140.5219  170.3568 C.3     1  UNL1        0.0189
     18 C         139.7730  140.2998  169.6998 C.3     1  UNL1        0.0741
     19 C         140.1039  141.0059  168.4185 C.3     1  UNL1        0.1066
     20 N         141.4340  140.7837  167.7616 N.pl3   1  UNL1       -0.3012
     21 C         142.4331  139.8554  168.3860 C.3     1  UNL1        0.1066
     22 C         142.1022  139.1493  169.6673 C.3     1  UNL1        0.0741
     23 C         143.1014  138.2209  170.2917 C.3     1  UNL1        0.0189
     24 N         140.7721  139.3715  170.3242 N.3     1  UNL1       -0.2969
     25 H         140.9622  139.7297  171.2601 H       1  UNL1        0.1233
     26 C         142.2355  144.1021  160.1394 C.2     1  UNL1        0.0774
     27 O         141.5237  145.3718  159.7774 O.co2   1  UNL1       -0.5444
     28 O         143.2782  143.5385  159.2201 O.co2   1  UNL1       -0.5444
     29 C         139.2059  140.8522  162.8339 C.3     1  UNL1        0.0857
     30 C         137.7773  140.5997  163.2148 C.3     1  UNL1        0.0245
     31 C         138.5841  139.5135  162.5672 C.3     1  UNL1        0.0245
@<TRIPOS>UNITY_ATOM_ATTR
27 1
charge -1
@<TRIPOS>BOND
     1    18    17    1
     2    18    19    1
     3    19    20    1
     4    20     1    1
     5     1     2   ar
     6     2     3    1
     7     2     4   ar
     8     4     5    1
     9     4     6   ar
    10     6     7   ar
    11     7     8    2
    12     7     9   ar
    13     9    26    1
    14    26    27   ar
    15    26    28   ar
    16     9    10   ar
    17    10    11   ar
    18    11    29    1
    19    29    30    1
    20    30    31    1
    21    11    12   ar
    22    12    13   ar
    23    13    14    1
    24    20    21    1
    25    21    22    1
    26    22    23    1
    27    22    24    1
    28    24    18    1
    29    13     1   ar
    30    12     6   ar
    31    31    29    1
    32     5    15    1
    33     5    16    1
    34    24    25    1
@<TRIPOS>MOLECULE
*****
 31 34 0 0 0
SMALL
GASTEIGER

@<TRIPOS>ATOM
      1 C         142.2380  141.0395  166.4161 C.ar    1  UNL1        0.1062
      2 C         143.1775  142.2088  166.4035 C.ar    1  UNL1        0.1685
      3 F         143.6882  142.7746  167.6954 F       1  UNL1       -0.2015
      4 C         143.6064  142.8121  165.0989 C.ar    1  UNL1        0.0752
      5 N         144.5459  143.9814  165.0862 N.pl3   1  UNL1       -0.3551
      6 C         143.0957  142.2463  163.8069 C.ar    1  UNL1        0.0722
      7 C         143.5246  142.8497  162.5024 C.ar    1  UNL1        0.2008
      8 O         144.4642  144.0189  162.4897 O.2     1  UNL1       -0.2864
      9 C         143.0139  142.2839  161.2105 C.ar    1  UNL1        0.0702
     10 C         142.0744  141.1146  161.2232 C.ar    1  UNL1        0.0802
     11 N         141.6455  140.5112  162.5277 N.ar    1  UNL1       -0.3259
     12 C         142.1562  141.0771  163.8196 C.ar    1  UNL1        0.0933
     13 C         141.7273  140.4737  165.1243 C.ar    1  UNL1        0.1713
     14 F         140.7878  139.3045  165.1370 F       1  UNL1       -0.2013
     15 H         144.8811  144.3528  165.9341 H       1  UNL1        0.1424
     16 H         144.8274  144.3774  164.2299 H       1  UNL1        0.1424
     17 C         143.1882  137.9137  170.4567 C.3     1  UNL1        0.0189
     18 C         142.2842  138.8732  169.7411 C.3     1  UNL1        0.0741
     19 C         142.7130  139.4766  168.4365 C.3     1  UNL1        0.1066
     20 N         141.8091  140.4361  167.7208 N.pl3   1  UNL1       -0.3012
     21 C         140.4764  140.7923  168.3097 C.3     1  UNL1        0.1066
     22 C         140.0476  140.1889  169.6143 C.3     1  UNL1        0.0741
     23 C         138.7147  140.5451  170.2033 C.3     1  UNL1        0.0189
     24 N         140.9515  139.2294  170.3300 N.3     1  UNL1       -0.2969
     25 H         140.4326  138.3573  170.4332 H       1  UNL1        0.1233
     26 C         143.4428  142.8872  159.9058 C.2     1  UNL1        0.0774
     27 O         142.7407  144.1015  159.3743 O.co2   1  UNL1       -0.5444
     28 O         144.5738  142.2763  159.1328 O.co2   1  UNL1       -0.5444
     29 C         140.7060  139.3420  162.5404 C.3     1  UNL1        0.0857
     30 C         139.3078  138.7990  162.5329 C.3     1  UNL1        0.0245
     31 C         140.4769  137.8599  162.5699 C.3     1  UNL1        0.0245
@<TRIPOS>UNITY_ATOM_ATTR
27 1
charge -1
@<TRIPOS>BOND
     1    18    17    1
     2    18    19    1
     3    19    20    1
     4    20     1    1
     5     1     2   ar
     6     2     3    1
     7     2     4   ar
     8     4     5    1
     9     4     6   ar
    10     6     7   ar
    11     7     8    2
    12     7     9   ar
    13     9    26    1
    14    26    27   ar
    15    26    28   ar
    16     9    10   ar
    17    10    11   ar
    18    11    29    1
    19    29    30    1
    20    30    31    1
    21    11    12   ar
    22    12    13   ar
    23    13    14    1
    24    20    21    1
    25    21    22    1
    26    22    23    1
    27    22    24    1
    28    24    18    1
    29    13     1   ar
    30    12     6   ar
    31    31    29    1
    32     5    15    1
    33     5    16    1
    34    24    25    1
@<TRIPOS>MOLECULE
*****
 31 34 0 0 0
SMALL
GASTEIGER

@<TRIPOS>ATOM
      1 C         141.1809  142.8942  165.4130 C.ar    1  UNL1        0.1062
      2 C         140.1260  143.9085  165.0835 C.ar    1  UNL1        0.1685
      3 F         139.1826  144.3827  166.1489 F       1  UNL1       -0.2015
      4 C         140.0146  144.4485  163.6885 C.ar    1  UNL1        0.0752
      5 N         138.9598  145.4628  163.3590 N.pl3   1  UNL1       -0.3551
      6 C         140.9580  143.9744  162.6231 C.ar    1  UNL1        0.0722
      7 C         140.8466  144.5144  161.2281 C.ar    1  UNL1        0.2008
      8 O         139.7918  145.5287  160.8986 O.2     1  UNL1       -0.2864
      9 C         141.7900  144.0402  160.1628 C.ar    1  UNL1        0.0702
     10 C         142.8448  143.0260  160.4923 C.ar    1  UNL1        0.0802
     11 N         142.9563  142.4859  161.8872 N.ar    1  UNL1       -0.3259
     12 C         142.0129  142.9601  162.9526 C.ar    1  UNL1        0.0933
     13 C         142.1243  142.4200  164.3476 C.ar    1  UNL1        0.1713
     14 F         143.1791  141.4058  164.6772 F       1  UNL1       -0.2013
     15 H         138.3406  145.7740  164.0583 H       1  UNL1        0.1424
     16 H         138.8866  145.8173  162.4434 H       1  UNL1        0.1424
     17 C         139.1386  140.2448  169.3892 C.3     1  UNL1        0.0189
     18 C         140.2711  141.0295  168.7961 C.3     1  UNL1        0.0741
     19 C         140.1598  141.5695  167.4012 C.3     1  UNL1        0.1066
     20 N         141.2923  142.3542  166.8080 N.pl3   1  UNL1       -0.3012
     21 C         142.5361  142.5987  167.6099 C.3     1  UNL1        0.1066
     22 C         142.6475  142.0587  169.0048 C.3     1  UNL1        0.0741
     23 C         143.8914  142.3033  169.8067 C.3     1  UNL1        0.0189
     24 N         141.5150  141.2741  169.5979 N.3     1  UNL1       -0.2969
     25 H         141.2278  141.7655  170.4443 H       1  UNL1        0.1233
     26 C         141.6786  144.5803  158.7678 C.2     1  UNL1        0.0774
     27 O         140.9439  143.8004  157.7180 O.co2   1  UNL1       -0.5444
     28 O         142.3019  145.9003  158.4225 O.co2   1  UNL1       -0.5444
     29 C         144.0111  141.4717  162.2168 C.3     1  UNL1        0.0857
     30 C         144.5188  140.0612  162.1634 C.3     1  UNL1        0.0245
     31 C         145.3304  141.1254  162.8409 C.3     1  UNL1        0.0245
@<TRIPOS>UNITY_ATOM_ATTR
27 1
charge -1
@<TRIPOS>BOND
     1    18    17    1
     2    18    19    1
     3    19    20    1
     4    20     1    1
     5     1     2   ar
     6     2     3    1
     7     2     4   ar
     8     4     5    1
     9     4     6   ar
    10     6     7   ar
    11     7     8    2
    12     7     9   ar
    13     9    26    1
    14    26    27   ar
    15    26    28   ar
    16     9    10   ar
    17    10    11   ar
    18    11    29    1
    19    29    30    1
    20    30    31    1
    21    11    12   ar
    22    12    13   ar
    23    13    14    1
    24    20    21    1
    25    21    22    1
    26    22    23    1
    27    22    24    1
    28    24    18    1
    29    13     1   ar
    30    12     6   ar
    31    31    29    1
    32     5    15    1
    33     5    16    1
    34    24    25    1
@<TRIPOS>MOLECULE
*****
 31 34 0 0 0
SMALL
GASTEIGER

@<TRIPOS>ATOM
      1 C         142.0779  142.2933  163.7273 C.ar    1  UNL1        0.1062
      2 C         143.2064  143.0543  164.3577 C.ar    1  UNL1        0.1685
      3 F         144.0458  143.9776  163.5252 F       1  UNL1       -0.2015
      4 C         143.4955  142.8920  165.8206 C.ar    1  UNL1        0.0752
      5 N         144.6240  143.6530  166.4510 N.pl3   1  UNL1       -0.3551
      6 C         142.6561  141.9687  166.6531 C.ar    1  UNL1        0.0722
      7 C         142.9453  141.8064  168.1160 C.ar    1  UNL1        0.2008
      8 O         144.0737  142.5673  168.7464 O.2     1  UNL1       -0.2864
      9 C         142.1059  140.8831  168.9484 C.ar    1  UNL1        0.0702
     10 C         140.9774  140.1221  168.3180 C.ar    1  UNL1        0.0802
     11 N         140.6883  140.2844  166.8551 N.ar    1  UNL1       -0.3259
     12 C         141.5277  141.2077  166.0227 C.ar    1  UNL1        0.0933
     13 C         141.2386  141.3700  164.5597 C.ar    1  UNL1        0.1713
     14 F         140.1101  140.6090  163.9293 F       1  UNL1       -0.2013
     15 H         145.1749  144.2590  165.9047 H       1  UNL1        0.1424
     16 H         144.8137  143.5464  167.4112 H       1  UNL1        0.1424
     17 C         142.0975  140.3784  158.8969 C.3     1  UNL1        0.0189
     18 C         141.7986  141.4982  159.8492 C.3     1  UNL1        0.0741
     19 C         142.0877  141.3359  161.3120 C.3     1  UNL1        0.1066
     20 N         141.7888  142.4556  162.2643 N.pl3   1  UNL1       -0.3012
     21 C         141.2009  143.7377  161.7538 C.3     1  UNL1        0.1066
     22 C         140.9119  143.8999  160.2909 C.3     1  UNL1        0.0741
     23 C         140.3239  145.1820  159.7802 C.3     1  UNL1        0.0189
     24 N         141.2107  142.7802  159.3386 N.3     1  UNL1       -0.2969
     25 H         141.8634  143.1484  158.6466 H       1  UNL1        0.1233
     26 C         142.3950  140.7207  170.4114 C.2     1  UNL1        0.0774
     27 O         143.4381  139.7433  170.8658 O.co2   1  UNL1       -0.5444
     28 O         141.6409  141.5358  171.4198 O.co2   1  UNL1       -0.5444
     29 C         139.5598  139.5234  166.2247 C.3     1  UNL1        0.0857
     30 C         138.1074  139.4134  165.8666 C.3     1  UNL1        0.0245
     31 C         139.0578  138.3154  165.4908 C.3     1  UNL1        0.0245
@<TRIPOS>UNITY_ATOM_ATTR
27 1
charge -1
@<TRIPOS>BOND
     1    18    17    1
     2    18    19    1
     3    19    20    1
     4    20     1    1
     5     1     2   ar
     6     2     3    1
     7     2     4   ar
     8     4     5    1
     9     4     6   ar
    10     6     7   ar
    11     7     8    2
    12     7     9   ar
    13     9    26    1
    14    26    27   ar
    15    26    28   ar
    16     9    10   ar
    17    10    11   ar
    18    11    29    1
    19    29    30    1
    20    30    31    1
    21    11    12   ar
    22    12    13   ar
    23    13    14    1
    24    20    21    1
    25    21    22    1
    26    22    23    1
    27    22    24    1
    28    24    18    1
    29    13     1   ar
    30    12     6   ar
    31    31    29    1
    32     5    15    1
    33     5    16    1
    34    24    25    1
@<TRIPOS>MOLECULE
*****
 31 34 0 0 0
SMALL
GASTEIGER

@<TRIPOS>ATOM
      1 C         142.7641  140.0685  163.8862 C.ar    1  UNL1        0.1062
      2 C         143.5689  139.1052  164.7075 C.ar    1  UNL1        0.1685
      3 F         144.6224  138.2605  164.0543 F       1  UNL1       -0.2015
      4 C         143.3201  138.9868  166.1820 C.ar    1  UNL1        0.0752
      5 N         144.1249  138.0235  167.0033 N.pl3   1  UNL1       -0.3551
      6 C         142.2666  139.8315  166.8351 C.ar    1  UNL1        0.0722
      7 C         142.0179  139.7131  168.3096 C.ar    1  UNL1        0.2008
      8 O         142.8226  138.7498  169.1309 O.2     1  UNL1       -0.2864
      9 C         140.9645  140.5578  168.9627 C.ar    1  UNL1        0.0702
     10 C         140.1597  141.5210  168.1413 C.ar    1  UNL1        0.0802
     11 N         140.4085  141.6395  166.6669 N.ar    1  UNL1       -0.3259
     12 C         141.4619  140.7948  166.0138 C.ar    1  UNL1        0.0933
     13 C         141.7107  140.9132  164.5393 C.ar    1  UNL1        0.1713
     14 F         140.9060  141.8764  163.7179 F       1  UNL1       -0.2013
     15 H         144.8163  137.4691  166.5746 H       1  UNL1        0.1424
     16 H         143.9616  137.9458  167.9711 H       1  UNL1        0.1424
     17 C         142.3544  138.1281  159.0833 C.3     1  UNL1        0.0189
     18 C         142.8080  139.2167  160.0102 C.3     1  UNL1        0.0741
     19 C         142.5593  139.0983  161.4847 C.3     1  UNL1        0.1066
     20 N         143.0129  140.1869  162.4116 N.pl3   1  UNL1       -0.3012
     21 C         143.7152  141.3939  161.8641 C.3     1  UNL1        0.1066
     22 C         143.9640  141.5123  160.3897 C.3     1  UNL1        0.0741
     23 C         144.6664  142.7193  159.8421 C.3     1  UNL1        0.0189
     24 N         143.5104  140.4237  159.4627 N.3     1  UNL1       -0.2969
     25 H         144.3410  140.0858  158.9766 H       1  UNL1        0.1233
     26 C         140.7157  140.4394  170.4372 C.2     1  UNL1        0.0774
     27 O         139.5085  139.7029  170.9374 O.co2   1  UNL1       -0.5444
     28 O         141.6742  141.0575  171.4115 O.co2   1  UNL1       -0.5444
     29 C         139.6037  142.6027  165.8455 C.3     1  UNL1        0.0857
     30 C         139.3597  143.9959  165.3461 C.3     1  UNL1        0.0245
     31 C         138.4539  142.8779  164.9224 C.3     1  UNL1        0.0245
@<TRIPOS>UNITY_ATOM_ATTR
27 1
charge -1
@<TRIPOS>BOND
     1    18    17    1
     2    18    19    1
     3    19    20    1
     4    20     1    1
     5     1     2   ar
     6     2     3    1
     7     2     4   ar
     8     4     5    1
     9     4     6   ar
    10     6     7   ar
    11     7     8    2
    12     7     9   ar
    13     9    26    1
    14    26    27   ar
    15    26    28   ar
    16     9    10   ar
    17    10    11   ar
    18    11    29    1
    19    29    30    1
    20    30    31    1
    21    11    12   ar
    22    12    13   ar
    23    13    14    1
    24    20    21    1
    25    21    22    1
    26    22    23    1
    27    22    24    1
    28    24    18    1
    29    13     1   ar
    30    12     6   ar
    31    31    29    1
    32     5    15    1
    33     5    16    1
    34    24    25    1
@<TRIPOS>MOLECULE
*****
 31 34 0 0 0
SMALL
GASTEIGER

@<TRIPOS>ATOM
      1 C         141.4578  140.0522  164.4340 C.ar    1  UNL1        0.1062
      2 C         141.9926  138.8282  163.7515 C.ar    1  UNL1        0.1685
      3 F         141.8274  137.4809  164.3898 F       1  UNL1       -0.2015
      4 C         142.6927  138.9516  162.4306 C.ar    1  UNL1        0.0752
      5 N         143.2275  137.7277  161.7480 N.pl3   1  UNL1       -0.3551
      6 C         142.8579  140.2990  161.7923 C.ar    1  UNL1        0.0722
      7 C         143.5580  140.4224  160.4715 C.ar    1  UNL1        0.2008
      8 O         144.0928  139.1984  159.7889 O.2     1  UNL1       -0.2864
      9 C         143.7232  141.7697  159.8332 C.ar    1  UNL1        0.0702
     10 C         143.1883  142.9936  160.5158 C.ar    1  UNL1        0.0802
     11 N         142.4883  142.8702  161.8366 N.ar    1  UNL1       -0.3259
     12 C         142.3231  141.5229  162.4749 C.ar    1  UNL1        0.0933
     13 C         141.6230  141.3995  163.7958 C.ar    1  UNL1        0.1713
     14 F         141.0881  142.6234  164.4784 F       1  UNL1       -0.2013
     15 H         143.1191  136.8434  162.1670 H       1  UNL1        0.1424
     16 H         143.6870  137.8087  160.8811 H       1  UNL1        0.1424
     17 C         141.3198  140.9317  169.5534 C.3     1  UNL1        0.0189
     18 C         140.6887  140.3685  168.3146 C.3     1  UNL1        0.0741
     19 C         141.3887  140.4919  166.9937 C.3     1  UNL1        0.1066
     20 N         140.7577  139.9287  165.7549 N.pl3   1  UNL1       -0.3012
     21 C         139.4266  139.2422  165.8370 C.3     1  UNL1        0.1066
     22 C         138.7266  139.1188  167.1579 C.3     1  UNL1        0.0741
     23 C         137.3954  138.4322  167.2400 C.3     1  UNL1        0.0189
     24 N         139.3576  139.6819  168.3966 N.3     1  UNL1       -0.2969
     25 H         139.4661  138.9066  169.0504 H       1  UNL1        0.1233
     26 C         144.4233  141.8931  158.5123 C.2     1  UNL1        0.0774
     27 O         145.6723  142.7160  158.3995 O.co2   1  UNL1       -0.5444
     28 O         143.8743  141.1936  157.3043 O.co2   1  UNL1       -0.5444
     29 C         141.9534  144.0942  162.5192 C.3     1  UNL1        0.0857
     30 C         142.1407  145.2351  163.4747 C.3     1  UNL1        0.0245
     31 C         140.8397  145.0731  162.7459 C.3     1  UNL1        0.0245
@<TRIPOS>UNITY_ATOM_ATTR
27 1
charge -1
@<TRIPOS>BOND
     1    18    17    1
     2    18    19    1
     3    19    20    1
     4    20     1    1
     5     1     2   ar
     6     2     3    1
     7     2     4   ar
     8     4     5    1
     9     4     6   ar
    10     6     7   ar
    11     7     8    2
    12     7     9   ar
    13     9    26    1
    14    26    27   ar
    15    26    28   ar
    16     9    10   ar
    17    10    11   ar
    18    11    29    1
    19    29    30    1
    20    30    31    1
    21    11    12   ar
    22    12    13   ar
    23    13    14    1
    24    20    21    1
    25    21    22    1
    26    22    23    1
    27    22    24    1
    28    24    18    1
    29    13     1   ar
    30    12     6   ar
    31    31    29    1
    32     5    15    1
    33     5    16    1
    34    24    25    1
