@<TRIPOS>MOLECULE
*****
 28 30 0 0 0
SMALL
GASTEIGER

@<TRIPOS>ATOM
      1 N         142.1700  143.7191  161.9848 N.3     1  UNL1       -0.2682
      2 C         142.9484  144.4618  163.0301 C.3     1  UNL1        0.0897
      3 C         143.2913  143.7914  164.3274 C.3     1  UNL1        0.0899
      4 N         142.8559  142.3782  164.5794 N.3     1  UNL1       -0.2665
      5 C         142.0775  141.6356  163.5341 C.3     1  UNL1        0.0899
      6 C         141.7346  142.3060  162.2368 C.3     1  UNL1        0.0897
      7 C         141.8271  144.3895  160.6876 C.3     1  UNL1        0.1056
      8 O         139.5987  144.3674  159.3521 O.3     1  UNL1       -0.3793
      9 C         140.4430  144.9214  160.4612 C.3     1  UNL1        0.1700
     10 H         138.7394  144.8175  159.3440 H       1  UNL1        0.2106
     11 C         139.9031  146.0074  161.3440 C.3     1  UNL1        0.2358
     12 O         138.6932  145.7519  162.1929 O.3     1  UNL1       -0.4728
     13 C         138.6337  144.5339  163.0665 C.ar    1  UNL1        0.1388
     14 C         137.8652  143.3262  162.6182 C.ar    1  UNL1        0.0392
     15 C         137.8057  142.1084  163.4918 C.ar    1  UNL1        0.0327
     16 C         138.5146  142.0981  164.8136 C.ar    1  UNL1        0.1403
     17 F         138.4550  140.8801  165.6872 F       1  UNL1       -0.2042
     18 C         139.2830  143.3058  165.2620 C.ar    1  UNL1        0.0327
     19 C         139.3426  144.5236  164.3884 C.ar    1  UNL1        0.0392
     20 C         143.1988  141.7078  165.8766 C.3     1  UNL1        0.0992
     21 C         142.1325  141.4759  166.9059 C.ar    1  UNL1       -0.0052
     22 C         141.4705  140.1339  167.0107 C.ar    1  UNL1       -0.0020
     23 C         140.4043  139.9019  168.0399 C.ar    1  UNL1        0.0120
     24 C         139.9999  141.0120  168.9643 C.ar    1  UNL1        0.0682
     25 CL        138.9336  140.7800  169.9935 Cl      1  UNL1       -0.0814
     26 C         140.6618  142.3539  168.8594 C.ar    1  UNL1        0.0679
     27 CL        140.2575  143.4639  169.7838 Cl      1  UNL1       -0.0814
     28 C         141.7281  142.5858  167.8302 C.ar    1  UNL1        0.0093
@<TRIPOS>BOND
     1     9     8    1
     2     9    11    1
     3    11    12    1
     4    12    13    1
     5    13    14   ar
     6    14    15   ar
     7    15    16   ar
     8    16    17    1
     9    16    18   ar
    10    18    19   ar
    11     9     7    1
    12     7     1    1
    13     1     2    1
    14     2     3    1
    15     3     4    1
    16     4    20    1
    17    20    21    1
    18    21    22   ar
    19    22    23   ar
    20    23    24   ar
    21    24    25    1
    22    24    26   ar
    23    26    27    1
    24    26    28   ar
    25     4     5    1
    26     5     6    1
    27    19    13   ar
    28     6     1    1
    29    28    21   ar
    30     8    10    1
@<TRIPOS>MOLECULE
*****
 28 30 0 0 0
SMALL
GASTEIGER

@<TRIPOS>ATOM
      1 N         138.7145  139.7699  159.7978 N.3     1  UNL1       -0.2682
      2 C         140.1098  139.3576  160.1630 C.3     1  UNL1        0.0897
      3 C         140.3631  138.6222  161.4455 C.3     1  UNL1        0.0899
      4 N         139.2212  138.2990  162.3629 N.3     1  UNL1       -0.2665
      5 C         137.8260  138.7112  161.9978 C.3     1  UNL1        0.0899
      6 C         137.5726  139.4466  160.7152 C.3     1  UNL1        0.0897
      7 C         138.4611  140.5053  158.5153 C.3     1  UNL1        0.1056
      8 O         137.6054  142.6704  157.3620 O.3     1  UNL1       -0.3793
      9 C         138.2554  141.9910  158.5308 C.3     1  UNL1        0.1700
     10 H         137.5492  143.6236  157.5324 H       1  UNL1        0.2106
     11 C         138.6997  142.7974  159.7150 C.3     1  UNL1        0.2358
     12 O         137.7545  143.0407  160.8540 O.3     1  UNL1       -0.4728
     13 C         138.2651  143.0456  162.2645 C.ar    1  UNL1        0.1388
     14 C         139.3243  142.0691  162.6820 C.ar    1  UNL1        0.0392
     15 C         139.8349  142.0741  164.0924 C.ar    1  UNL1        0.0327
     16 C         139.2862  143.0555  165.0852 C.ar    1  UNL1        0.1403
     17 F         139.7968  143.0605  166.4957 F       1  UNL1       -0.2042
     18 C         138.2270  144.0321  164.6677 C.ar    1  UNL1        0.0327
     19 C         137.7164  144.0271  163.2573 C.ar    1  UNL1        0.0392
     20 C         139.4746  137.5635  163.6455 C.3     1  UNL1        0.0992
     21 C         139.5648  138.3192  164.9381 C.ar    1  UNL1       -0.0052
     22 C         138.3433  138.4955  165.7906 C.ar    1  UNL1       -0.0020
     23 C         138.4335  139.2511  167.0832 C.ar    1  UNL1        0.0120
     24 C         139.7453  139.8304  167.5234 C.ar    1  UNL1        0.0682
     25 CL        139.8355  140.5860  168.8160 Cl      1  UNL1       -0.0814
     26 C         140.9669  139.6541  166.6709 C.ar    1  UNL1        0.0679
     27 CL        142.2786  140.2333  167.1110 Cl      1  UNL1       -0.0814
     28 C         140.8766  138.8984  165.3782 C.ar    1  UNL1        0.0093
@<TRIPOS>BOND
     1     9     8    1
     2     9    11    1
     3    11    12    1
     4    12    13    1
     5    13    14   ar
     6    14    15   ar
     7    15    16   ar
     8    16    17    1
     9    16    18   ar
    10    18    19   ar
    11     9     7    1
    12     7     1    1
    13     1     2    1
    14     2     3    1
    15     3     4    1
    16     4    20    1
    17    20    21    1
    18    21    22   ar
    19    22    23   ar
    20    23    24   ar
    21    24    25    1
    22    24    26   ar
    23    26    27    1
    24    26    28   ar
    25     4     5    1
    26     5     6    1
    27    19    13   ar
    28     6     1    1
    29    28    21   ar
    30     8    10    1
@<TRIPOS>MOLECULE
*****
 28 30 0 0 0
SMALL
GASTEIGER

@<TRIPOS>ATOM
      1 N         140.3176  139.2073  159.9771 N.3     1  UNL1       -0.2682
      2 C         140.5429  140.5827  160.5319 C.3     1  UNL1        0.0897
      3 C         139.7512  141.0526  161.7161 C.3     1  UNL1        0.0899
      4 N         138.7343  140.1473  162.3456 N.3     1  UNL1       -0.2665
      5 C         138.5090  138.7720  161.7908 C.3     1  UNL1        0.0899
      6 C         139.3006  138.3020  160.6066 C.3     1  UNL1        0.0897
      7 C         141.1092  138.7373  158.7929 C.3     1  UNL1        0.1056
      8 O         143.2570  137.6522  157.8134 O.3     1  UNL1       -0.3793
      9 C         142.4198  138.0369  158.9971 C.3     1  UNL1        0.1700
     10 H         144.0654  137.2115  158.1187 H       1  UNL1        0.2106
     11 C         142.8932  137.7211  160.3850 C.3     1  UNL1        0.2358
     12 O         143.4744  138.8048  161.2439 O.3     1  UNL1       -0.4728
     13 C         143.2411  138.7936  162.7257 C.ar    1  UNL1        0.1388
     14 C         144.3272  139.2395  163.6593 C.ar    1  UNL1        0.0392
     15 C         144.0939  139.2283  165.1410 C.ar    1  UNL1        0.0327
     16 C         142.7746  138.7711  165.6891 C.ar    1  UNL1        0.1403
     17 F         142.5414  138.7599  167.1708 F       1  UNL1       -0.2042
     18 C         141.6886  138.3251  164.7555 C.ar    1  UNL1        0.0327
     19 C         141.9218  138.3364  163.2738 C.ar    1  UNL1        0.0392
     20 C         137.9426  140.6173  163.5298 C.3     1  UNL1        0.0992
     21 C         138.4994  140.4613  164.9139 C.ar    1  UNL1       -0.0052
     22 C         138.0730  139.3040  165.7677 C.ar    1  UNL1       -0.0020
     23 C         138.6296  139.1480  167.1518 C.ar    1  UNL1        0.0120
     24 C         139.6128  140.1492  167.6821 C.ar    1  UNL1        0.0682
     25 CL        140.1695  139.9931  169.0662 Cl      1  UNL1       -0.0814
     26 C         140.0392  141.3064  166.8283 C.ar    1  UNL1        0.0679
     27 CL        141.0223  142.3075  167.3585 Cl      1  UNL1       -0.0814
     28 C         139.4824  141.4624  165.4441 C.ar    1  UNL1        0.0093
@<TRIPOS>BOND
     1     9     8    1
     2     9    11    1
     3    11    12    1
     4    12    13    1
     5    13    14   ar
     6    14    15   ar
     7    15    16   ar
     8    16    17    1
     9    16    18   ar
    10    18    19   ar
    11     9     7    1
    12     7     1    1
    13     1     2    1
    14     2     3    1
    15     3     4    1
    16     4    20    1
    17    20    21    1
    18    21    22   ar
    19    22    23   ar
    20    23    24   ar
    21    24    25    1
    22    24    26   ar
    23    26    27    1
    24    26    28   ar
    25     4     5    1
    26     5     6    1
    27    19    13   ar
    28     6     1    1
    29    28    21   ar
    30     8    10    1
@<TRIPOS>MOLECULE
*****
 28 30 0 0 0
SMALL
GASTEIGER

@<TRIPOS>ATOM
      1 N         138.9040  143.6161  163.4134 N.3     1  UNL1       -0.2682
      2 C         139.4599  143.6905  164.8046 C.3     1  UNL1        0.0897
      3 C         139.5613  142.4483  165.6392 C.3     1  UNL1        0.0899
      4 N         139.1068  141.1316  165.0827 N.3     1  UNL1       -0.2665
      5 C         138.5509  141.0571  163.6915 C.3     1  UNL1        0.0899
      6 C         138.4495  142.2994  162.8568 C.3     1  UNL1        0.0897
      7 C         138.8027  144.8582  162.5788 C.3     1  UNL1        0.1056
      8 O         140.3356  146.9350  162.2834 O.3     1  UNL1       -0.3793
      9 C         140.0430  145.4880  162.0176 C.3     1  UNL1        0.1700
     10 H         141.1689  147.1809  161.8520 H       1  UNL1        0.2106
     11 C         140.9908  144.6707  161.1906 C.3     1  UNL1        0.2358
     12 O         142.4506  144.6398  161.5339 O.3     1  UNL1       -0.4728
     13 C         143.0067  143.5065  162.3442 C.ar    1  UNL1        0.1388
     14 C         142.1289  142.3481  162.7148 C.ar    1  UNL1        0.0392
     15 C         142.6850  141.2149  163.5252 C.ar    1  UNL1        0.0327
     16 C         144.1188  141.2402  163.9649 C.ar    1  UNL1        0.1403
     17 F         144.6749  140.1070  164.7753 F       1  UNL1       -0.2042
     18 C         144.9966  142.3987  163.5943 C.ar    1  UNL1        0.0327
     19 C         144.4406  143.5318  162.7840 C.ar    1  UNL1        0.0392
     20 C         139.2081  139.8894  165.9173 C.3     1  UNL1        0.0992
     21 C         140.1777  139.8309  167.0604 C.ar    1  UNL1       -0.0052
     22 C         141.6331  139.5804  166.7973 C.ar    1  UNL1       -0.0020
     23 C         142.6026  139.5218  167.9402 C.ar    1  UNL1        0.0120
     24 C         142.1169  139.7138  169.3464 C.ar    1  UNL1        0.0682
     25 CL        143.0865  139.6552  170.4894 Cl      1  UNL1       -0.0814
     26 C         140.6615  139.9642  169.6095 C.ar    1  UNL1        0.0679
     27 CL        140.1758  140.1562  171.0156 Cl      1  UNL1       -0.0814
     28 C         139.6919  140.0228  168.4665 C.ar    1  UNL1        0.0093
@<TRIPOS>BOND
     1     9     8    1
     2     9    11    1
     3    11    12    1
     4    12    13    1
     5    13    14   ar
     6    14    15   ar
     7    15    16   ar
     8    16    17    1
     9    16    18   ar
    10    18    19   ar
    11     9     7    1
    12     7     1    1
    13     1     2    1
    14     2     3    1
    15     3     4    1
    16     4    20    1
    17    20    21    1
    18    21    22   ar
    19    22    23   ar
    20    23    24   ar
    21    24    25    1
    22    24    26   ar
    23    26    27    1
    24    26    28   ar
    25     4     5    1
    26     5     6    1
    27    19    13   ar
    28     6     1    1
    29    28    21   ar
    30     8    10    1
@<TRIPOS>MOLECULE
*****
 28 30 0 0 0
SMALL
GASTEIGER

@<TRIPOS>ATOM
      1 N         139.9865  142.6463  161.2311 N.3     1  UNL1       -0.2682
      2 C         141.3413  142.0477  161.4690 C.3     1  UNL1        0.0897
      3 C         141.4899  140.8679  162.3832 C.3     1  UNL1        0.0899
      4 N         140.2839  140.2865  163.0596 N.3     1  UNL1       -0.2665
      5 C         138.9292  140.8850  162.8218 C.3     1  UNL1        0.0899
      6 C         138.7805  142.0649  161.9075 C.3     1  UNL1        0.0897
      7 C         139.8378  143.8261  160.3169 C.3     1  UNL1        0.1056
      8 O         141.7523  145.5443  159.9531 O.3     1  UNL1       -0.3793
      9 C         140.4967  145.1290  160.6608 C.3     1  UNL1        0.1700
     10 H         142.0448  146.4049  160.2917 H       1  UNL1        0.2106
     11 C         139.8998  146.0167  161.7124 C.3     1  UNL1        0.2358
     12 O         139.7252  145.5079  163.1126 O.3     1  UNL1       -0.4728
     13 C         140.8423  144.7672  163.7862 C.ar    1  UNL1        0.1388
     14 C         140.5342  143.6546  164.7439 C.ar    1  UNL1        0.0392
     15 C         141.6512  142.9140  165.4175 C.ar    1  UNL1        0.0327
     16 C         143.0763  143.2860  165.1334 C.ar    1  UNL1        0.1403
     17 F         144.1933  142.5454  165.8070 F       1  UNL1       -0.2042
     18 C         143.3844  144.3986  164.1758 C.ar    1  UNL1        0.0327
     19 C         142.2674  145.1392  163.5022 C.ar    1  UNL1        0.0392
     20 C         140.4326  139.1067  163.9738 C.3     1  UNL1        0.0992
     21 C         140.9317  139.3017  165.3749 C.ar    1  UNL1       -0.0052
     22 C         142.3754  139.0543  165.6980 C.ar    1  UNL1       -0.0020
     23 C         142.8745  139.2493  167.0990 C.ar    1  UNL1        0.0120
     24 C         141.9299  139.6917  168.1770 C.ar    1  UNL1        0.0682
     25 CL        142.4290  139.8866  169.5780 Cl      1  UNL1       -0.0814
     26 C         140.4861  139.9390  167.8539 C.ar    1  UNL1        0.0679
     27 CL        139.5415  140.3813  168.9318 Cl      1  UNL1       -0.0814
     28 C         139.9870  139.7440  166.4528 C.ar    1  UNL1        0.0093
@<TRIPOS>BOND
     1     9     8    1
     2     9    11    1
     3    11    12    1
     4    12    13    1
     5    13    14   ar
     6    14    15   ar
     7    15    16   ar
     8    16    17    1
     9    16    18   ar
    10    18    19   ar
    11     9     7    1
    12     7     1    1
    13     1     2    1
    14     2     3    1
    15     3     4    1
    16     4    20    1
    17    20    21    1
    18    21    22   ar
    19    22    23   ar
    20    23    24   ar
    21    24    25    1
    22    24    26   ar
    23    26    27    1
    24    26    28   ar
    25     4     5    1
    26     5     6    1
    27    19    13   ar
    28     6     1    1
    29    28    21   ar
    30     8    10    1
@<TRIPOS>MOLECULE
*****
 28 30 0 0 0
SMALL
GASTEIGER

@<TRIPOS>ATOM
      1 N         142.6595  140.9381  162.2362 N.3     1  UNL1       -0.2682
      2 C         141.2579  141.3169  161.8593 C.3     1  UNL1        0.0897
      3 C         140.2500  141.6204  162.9279 C.3     1  UNL1        0.0899
      4 N         140.6436  141.5453  164.3733 N.3     1  UNL1       -0.2665
      5 C         142.0452  141.1665  164.7502 C.3     1  UNL1        0.0899
      6 C         143.0532  140.8629  163.6816 C.3     1  UNL1        0.0897
      7 C         143.6674  140.6345  161.1676 C.3     1  UNL1        0.1056
      8 O         143.9640  139.1290  159.0710 O.3     1  UNL1       -0.3793
      9 C         143.7103  139.2716  160.5425 C.3     1  UNL1        0.1700
     10 H         143.9596  138.1890  158.8318 H       1  UNL1        0.2106
     11 C         143.4996  138.0513  161.3890 C.3     1  UNL1        0.2358
     12 O         142.1875  137.3258  161.3455 O.3     1  UNL1       -0.4728
     13 C         141.1464  137.5953  162.3914 C.ar    1  UNL1        0.1388
     14 C         139.7493  137.9575  161.9831 C.ar    1  UNL1        0.0392
     15 C         138.7084  138.2269  163.0290 C.ar    1  UNL1        0.0327
     16 C         139.0646  138.1341  164.4831 C.ar    1  UNL1        0.1403
     17 F         138.0236  138.4036  165.5290 F       1  UNL1       -0.2042
     18 C         140.4617  137.7719  164.8914 C.ar    1  UNL1        0.0327
     19 C         141.5027  137.5025  163.8455 C.ar    1  UNL1        0.0392
     20 C         139.6357  141.8488  165.4419 C.3     1  UNL1        0.0992
     21 C         139.9904  141.6500  166.8858 C.ar    1  UNL1       -0.0052
     22 C         139.9534  140.2753  167.4848 C.ar    1  UNL1       -0.0020
     23 C         140.3081  140.0765  168.9286 C.ar    1  UNL1        0.0120
     24 C         140.6998  141.2524  169.7735 C.ar    1  UNL1        0.0682
     25 CL        141.0545  141.0535  171.2173 Cl      1  UNL1       -0.0814
     26 C         140.7369  142.6271  169.1745 C.ar    1  UNL1        0.0679
     27 CL        141.1286  143.8030  170.0194 Cl      1  UNL1       -0.0814
     28 C         140.3821  142.8259  167.7307 C.ar    1  UNL1        0.0093
@<TRIPOS>BOND
     1     9     8    1
     2     9    11    1
     3    11    12    1
     4    12    13    1
     5    13    14   ar
     6    14    15   ar
     7    15    16   ar
     8    16    17    1
     9    16    18   ar
    10    18    19   ar
    11     9     7    1
    12     7     1    1
    13     1     2    1
    14     2     3    1
    15     3     4    1
    16     4    20    1
    17    20    21    1
    18    21    22   ar
    19    22    23   ar
    20    23    24   ar
    21    24    25    1
    22    24    26   ar
    23    26    27    1
    24    26    28   ar
    25     4     5    1
    26     5     6    1
    27    19    13   ar
    28     6     1    1
    29    28    21   ar
    30     8    10    1
@<TRIPOS>MOLECULE
*****
 28 30 0 0 0
SMALL
GASTEIGER

@<TRIPOS>ATOM
      1 N         143.6780  140.2752  161.7693 N.3     1  UNL1       -0.2682
      2 C         144.7060  140.4529  162.8472 C.3     1  UNL1        0.0897
      3 C         144.4856  139.8462  164.2012 C.3     1  UNL1        0.0899
      4 N         143.2372  139.0618  164.4773 N.3     1  UNL1       -0.2665
      5 C         142.2092  138.8841  163.3995 C.3     1  UNL1        0.0899
      6 C         142.4296  139.4908  162.0455 C.3     1  UNL1        0.0897
      7 C         143.8985  140.8818  160.4153 C.3     1  UNL1        0.1056
      8 O         145.5899  142.8503  160.2963 O.3     1  UNL1       -0.3793
      9 C         144.1756  142.3505  160.2877 C.3     1  UNL1        0.1700
     10 H         145.5920  143.8161  160.2053 H       1  UNL1        0.2106
     11 C         143.0385  143.3193  160.1513 C.3     1  UNL1        0.2358
     12 O         142.7145  144.2583  161.2752 O.3     1  UNL1       -0.4728
     13 C         142.8542  143.8024  162.6974 C.ar    1  UNL1        0.1388
     14 C         141.7755  142.9730  163.3286 C.ar    1  UNL1        0.0392
     15 C         141.9153  142.5171  164.7507 C.ar    1  UNL1        0.0327
     16 C         143.1338  142.8908  165.5418 C.ar    1  UNL1        0.1403
     17 F         143.2735  142.4349  166.9640 F       1  UNL1       -0.2042
     18 C         144.2124  143.7203  164.9106 C.ar    1  UNL1        0.0327
     19 C         144.0727  144.1761  163.4885 C.ar    1  UNL1        0.0392
     20 C         143.0167  138.4551  165.8313 C.3     1  UNL1        0.0992
     21 C         142.1605  139.1624  166.8397 C.ar    1  UNL1       -0.0052
     22 C         140.7768  139.6069  166.4686 C.ar    1  UNL1       -0.0020
     23 C         139.9205  140.3140  167.4770 C.ar    1  UNL1        0.0120
     24 C         140.4481  140.5768  168.8564 C.ar    1  UNL1        0.0682
     25 CL        139.5918  141.2840  169.8647 Cl      1  UNL1       -0.0814
     26 C         141.8318  140.1323  169.2274 C.ar    1  UNL1        0.0679
     27 CL        142.3593  140.3950  170.6068 Cl      1  UNL1       -0.0814
     28 C         142.6880  139.4250  168.2190 C.ar    1  UNL1        0.0093
@<TRIPOS>BOND
     1     9     8    1
     2     9    11    1
     3    11    12    1
     4    12    13    1
     5    13    14   ar
     6    14    15   ar
     7    15    16   ar
     8    16    17    1
     9    16    18   ar
    10    18    19   ar
    11     9     7    1
    12     7     1    1
    13     1     2    1
    14     2     3    1
    15     3     4    1
    16     4    20    1
    17    20    21    1
    18    21    22   ar
    19    22    23   ar
    20    23    24   ar
    21    24    25    1
    22    24    26   ar
    23    26    27    1
    24    26    28   ar
    25     4     5    1
    26     5     6    1
    27    19    13   ar
    28     6     1    1
    29    28    21   ar
    30     8    10    1
@<TRIPOS>MOLECULE
*****
 28 30 0 0 0
SMALL
GASTEIGER

@<TRIPOS>ATOM
      1 N         138.6594  141.7399  162.0139 N.3     1  UNL1       -0.2682
      2 C         137.6549  142.2395  163.0096 C.3     1  UNL1        0.0897
      3 C         138.1055  142.6926  164.3667 C.3     1  UNL1        0.0899
      4 N         139.5606  142.6461  164.7280 N.3     1  UNL1       -0.2665
      5 C         140.5651  142.1466  163.7323 C.3     1  UNL1        0.0899
      6 C         140.1145  141.6934  162.3752 C.3     1  UNL1        0.0897
      7 C         138.2087  141.2868  160.6568 C.3     1  UNL1        0.1056
      8 O         136.5191  139.3317  160.3875 O.3     1  UNL1       -0.3793
      9 C         137.9323  139.8343  160.4047 C.3     1  UNL1        0.1700
     10 H         136.5173  138.3777  160.2124 H       1  UNL1        0.2106
     11 C         139.0691  138.8842  160.1696 C.3     1  UNL1        0.2358
     12 O         139.2694  137.7132  161.0853 O.3     1  UNL1       -0.4728
     13 C         140.0617  137.8759  162.3487 C.ar    1  UNL1        0.1388
     14 C         139.3722  137.8155  163.6794 C.ar    1  UNL1        0.0392
     15 C         140.1644  137.9782  164.9426 C.ar    1  UNL1        0.0327
     16 C         141.6462  138.2013  164.8751 C.ar    1  UNL1        0.1403
     17 F         142.4385  138.3640  166.1384 F       1  UNL1       -0.2042
     18 C         142.3357  138.2618  163.5444 C.ar    1  UNL1        0.0327
     19 C         141.5434  138.0991  162.2811 C.ar    1  UNL1        0.0392
     20 C         140.0112  143.0992  166.0851 C.3     1  UNL1        0.0992
     21 C         140.5275  142.0990  167.0766 C.ar    1  UNL1       -0.0052
     22 C         139.8067  140.7986  167.2747 C.ar    1  UNL1       -0.0020
     23 C         140.3229  139.7984  168.2662 C.ar    1  UNL1        0.0120
     24 C         141.5601  140.0986  169.0596 C.ar    1  UNL1        0.0682
     25 CL        142.0763  139.0984  170.0511 Cl      1  UNL1       -0.0814
     26 C         142.2809  141.3990  168.8615 C.ar    1  UNL1        0.0679
     27 CL        143.5180  141.6993  169.6548 Cl      1  UNL1       -0.0814
     28 C         141.7646  142.3993  167.8699 C.ar    1  UNL1        0.0093
@<TRIPOS>BOND
     1     9     8    1
     2     9    11    1
     3    11    12    1
     4    12    13    1
     5    13    14   ar
     6    14    15   ar
     7    15    16   ar
     8    16    17    1
     9    16    18   ar
    10    18    19   ar
    11     9     7    1
    12     7     1    1
    13     1     2    1
    14     2     3    1
    15     3     4    1
    16     4    20    1
    17    20    21    1
    18    21    22   ar
    19    22    23   ar
    20    23    24   ar
    21    24    25    1
    22    24    26   ar
    23    26    27    1
    24    26    28   ar
    25     4     5    1
    26     5     6    1
    27    19    13   ar
    28     6     1    1
    29    28    21   ar
    30     8    10    1
@<TRIPOS>MOLECULE
*****
 28 30 0 0 0
SMALL
GASTEIGER

@<TRIPOS>ATOM
      1 N         140.0993  138.3909  162.0808 N.3     1  UNL1       -0.2682
      2 C         139.5574  138.0805  163.4447 C.3     1  UNL1        0.0897
      3 C         140.4767  138.0580  164.6297 C.3     1  UNL1        0.0899
      4 N         141.9380  138.3458  164.4509 N.3     1  UNL1       -0.2665
      5 C         142.4799  138.6562  163.0871 C.3     1  UNL1        0.0899
      6 C         141.5605  138.6787  161.9020 C.3     1  UNL1        0.0897
      7 C         139.1799  138.4134  160.8958 C.3     1  UNL1        0.1056
      8 O         136.7785  139.4048  160.8850 O.3     1  UNL1       -0.3793
      9 C         138.2554  139.5757  160.6859 C.3     1  UNL1        0.1700
     10 H         136.3292  140.2465  160.7100 H       1  UNL1        0.2106
     11 C         138.8077  140.9090  160.2768 C.3     1  UNL1        0.2358
     12 O         139.8364  141.5888  161.1310 O.3     1  UNL1       -0.4728
     13 C         139.4055  142.4592  162.2742 C.ar    1  UNL1        0.1388
     14 C         138.1137  143.2173  162.1943 C.ar    1  UNL1        0.0392
     15 C         137.6830  144.0876  163.3375 C.ar    1  UNL1        0.0327
     16 C         138.5440  144.1997  164.5607 C.ar    1  UNL1        0.1403
     17 F         138.1131  145.0701  165.7039 F       1  UNL1       -0.2042
     18 C         139.8358  143.4416  164.6406 C.ar    1  UNL1        0.0327
     19 C         140.2666  142.5713  163.4974 C.ar    1  UNL1        0.0392
     20 C         142.8573  138.3233  165.6359 C.3     1  UNL1        0.0992
     21 C         142.8332  139.4505  166.6254 C.ar    1  UNL1       -0.0052
     22 C         142.8570  140.8711  166.1446 C.ar    1  UNL1       -0.0020
     23 C         142.8330  141.9983  167.1340 C.ar    1  UNL1        0.0120
     24 C         142.7851  141.7048  168.6043 C.ar    1  UNL1        0.0682
     25 CL        142.7610  142.8319  169.5937 Cl      1  UNL1       -0.0814
     26 C         142.7612  140.2841  169.0851 C.ar    1  UNL1        0.0679
     27 CL        142.7133  139.9906  170.5553 Cl      1  UNL1       -0.0814
     28 C         142.7853  139.1570  168.0956 C.ar    1  UNL1        0.0093
@<TRIPOS>BOND
     1     9     8    1
     2     9    11    1
     3    11    12    1
     4    12    13    1
     5    13    14   ar
     6    14    15   ar
     7    15    16   ar
     8    16    17    1
     9    16    18   ar
    10    18    19   ar
    11     9     7    1
    12     7     1    1
    13     1     2    1
    14     2     3    1
    15     3     4    1
    16     4    20    1
    17    20    21    1
    18    21    22   ar
    19    22    23   ar
    20    23    24   ar
    21    24    25    1
    22    24    26   ar
    23    26    27    1
    24    26    28   ar
    25     4     5    1
    26     5     6    1
    27    19    13   ar
    28     6     1    1
    29    28    21   ar
    30     8    10    1
