@<TRIPOS>MOLECULE
*****
 25 26 0 0 0
SMALL
GASTEIGER

@<TRIPOS>ATOM
      1 N         139.1735  143.8330  165.2906 N.am    1  UNL1       -0.3004
      2 C         140.2584  142.8527  165.6249 C.2     1  UNL1        0.2461
      3 O         141.3962  142.6391  164.6711 O.2     1  UNL1       -0.2701
      4 H         138.4267  143.9732  165.9166 H       1  UNL1        0.1498
      5 C         140.2055  142.0859  166.9130 C.ar    1  UNL1        0.0595
      6 C         139.6318  140.7002  166.9379 C.ar    1  UNL1        0.0049
      7 C         139.5790  139.9334  168.2260 C.ar    1  UNL1        0.0065
      8 C         140.0998  140.5523  169.4892 C.ar    1  UNL1        0.0753
      9 C         140.6735  141.9380  169.4643 C.ar    1  UNL1        0.2902
     10 C         140.7263  142.7048  168.1762 C.ar    1  UNL1        0.0798
     11 N         141.1943  142.5570  170.7275 N.pl3   1  UNL1        0.0809
     12 O         140.5769  142.2007  172.0472 O.2     1  UNL1        0.0415
     13 O         142.3326  143.5322  170.6709 O.co2   1  UNL1       -0.5760
     14 C         139.2263  144.5999  164.0024 C.3     1  UNL1        0.0993
     15 C         138.7176  143.9760  162.7368 C.3     1  UNL1        0.1062
     16 O         136.9290  142.1058  162.9680 O.2     1  UNL1       -0.2750
     17 C         138.3472  142.5227  162.7132 C.2     1  UNL1        0.2245
     18 N         139.3952  141.4861  162.4349 N.am    1  UNL1       -0.2966
     19 H         140.3260  141.7596  162.2677 H       1  UNL1        0.1499
     20 C         139.0248  140.0327  162.4114 C.3     1  UNL1        0.1752
     21 C         139.4677  138.9939  163.3987 C.3     1  UNL1        0.0785
     22 C         138.8632  137.6821  162.9939 C.3     1  UNL1        0.2108
     23 O         138.0467  137.9103  161.7564 O.3     1  UNL1       -0.4473
     24 C         138.1466  139.3630  161.3964 C.2     1  UNL1        0.3351
     25 O         137.4846  140.0290  160.2268 O.2     1  UNL1       -0.2483
@<TRIPOS>UNITY_ATOM_ATTR
11 1
charge 1
13 1
charge -1
@<TRIPOS>BOND
     1    16    17    2
     2    17    15    1
     3    15    14    1
     4    14     1    1
     5     1     2   am
     6     2     3    2
     7     2     5    1
     8     5     6   ar
     9     6     7   ar
    10     7     8   ar
    11     8     9   ar
    12     9    11    1
    13    11    12    2
    14    11    13    1
    15     9    10   ar
    16    17    18   am
    17    18    20    1
    18    20    21    1
    19    21    22    1
    20    22    23    1
    21    23    24    1
    22    24    25    2
    23    10     5   ar
    24    24    20    1
    25     1     4    1
    26    18    19    1
@<TRIPOS>MOLECULE
*****
 25 26 0 0 0
SMALL
GASTEIGER

@<TRIPOS>ATOM
      1 N         140.6525  138.2193  164.1855 N.am    1  UNL1       -0.3004
      2 C         139.7406  138.7391  165.2571 C.2     1  UNL1        0.2461
      3 O         138.2533  138.6653  165.0771 O.2     1  UNL1       -0.2701
      4 H         141.6287  138.2677  164.3037 H       1  UNL1        0.1498
      5 C         140.3161  139.3327  166.5087 C.ar    1  UNL1        0.0595
      6 C         141.8002  139.5024  166.6447 C.ar    1  UNL1        0.0049
      7 C         142.3756  140.0960  167.8963 C.ar    1  UNL1        0.0065
      8 C         141.4669  140.5198  169.0119 C.ar    1  UNL1        0.0753
      9 C         139.9828  140.3501  168.8759 C.ar    1  UNL1        0.2902
     10 C         139.4074  139.7566  167.6243 C.ar    1  UNL1        0.0798
     11 N         139.0740  140.7740  169.9915 N.pl3   1  UNL1        0.0809
     12 O         139.2746  142.1024  170.6586 O.2     1  UNL1        0.0415
     13 O         137.9648  139.8694  170.4401 O.co2   1  UNL1       -0.5760
     14 C         140.0770  137.6257  162.9339 C.3     1  UNL1        0.0993
     15 C         139.5130  138.5202  161.8701 C.3     1  UNL1        0.1062
     16 O         140.5667  140.8950  161.8619 O.2     1  UNL1       -0.2750
     17 C         139.3938  139.9951  162.1161 C.2     1  UNL1        0.2245
     18 N         138.1018  140.5701  162.6163 N.am    1  UNL1       -0.2966
     19 H         137.3320  139.9795  162.7831 H       1  UNL1        0.1499
     20 C         137.9827  142.0450  162.8622 C.3     1  UNL1        0.1752
     21 C         137.8204  142.7056  164.1991 C.3     1  UNL1        0.0785
     22 C         137.7423  144.1871  163.9776 C.3     1  UNL1        0.2108
     23 O         137.8563  144.4421  162.5038 O.3     1  UNL1       -0.4473
     24 C         138.0049  143.1181  161.8145 C.2     1  UNL1        0.3351
     25 O         138.1501  142.9049  160.3368 O.2     1  UNL1       -0.2483
@<TRIPOS>UNITY_ATOM_ATTR
11 1
charge 1
13 1
charge -1
@<TRIPOS>BOND
     1    16    17    2
     2    17    15    1
     3    15    14    1
     4    14     1    1
     5     1     2   am
     6     2     3    2
     7     2     5    1
     8     5     6   ar
     9     6     7   ar
    10     7     8   ar
    11     8     9   ar
    12     9    11    1
    13    11    12    2
    14    11    13    1
    15     9    10   ar
    16    17    18   am
    17    18    20    1
    18    20    21    1
    19    21    22    1
    20    22    23    1
    21    23    24    1
    22    24    25    2
    23    10     5   ar
    24    24    20    1
    25     1     4    1
    26    18    19    1
@<TRIPOS>MOLECULE
*****
 25 26 0 0 0
SMALL
GASTEIGER

@<TRIPOS>ATOM
      1 N         143.4675  142.5335  166.0402 N.am    1  UNL1       -0.3004
      2 C         142.0344  142.1474  165.8228 C.2     1  UNL1        0.2461
      3 O         141.4383  142.2203  164.4483 O.2     1  UNL1       -0.2701
      4 H         143.8587  142.4857  166.9424 H       1  UNL1        0.1498
      5 C         141.1975  141.6883  166.9799 C.ar    1  UNL1        0.0595
      6 C         140.4624  140.3831  166.9026 C.ar    1  UNL1        0.0049
      7 C         139.6255  139.9241  168.0597 C.ar    1  UNL1        0.0065
      8 C         139.5236  140.7703  169.2940 C.ar    1  UNL1        0.0753
      9 C         140.2587  142.0756  169.3712 C.ar    1  UNL1        0.2902
     10 C         141.0956  142.5346  168.2142 C.ar    1  UNL1        0.0798
     11 N         140.1568  142.9218  170.6056 N.pl3   1  UNL1        0.0809
     12 O         140.3803  142.3084  171.9560 O.2     1  UNL1        0.0415
     13 O         139.8314  144.3814  170.4894 O.co2   1  UNL1       -0.5760
     14 C         144.3044  142.9926  164.8831 C.3     1  UNL1        0.0993
     15 C         145.2520  142.0389  164.2179 C.3     1  UNL1        0.1062
     16 O         145.2521  139.4426  164.1232 O.2     1  UNL1       -0.2750
     17 C         144.7370  140.7606  163.6258 C.2     1  UNL1        0.2245
     18 N         143.7067  140.8003  162.5363 N.am    1  UNL1       -0.2966
     19 H         143.3685  141.6654  162.2098 H       1  UNL1        0.1499
     20 C         143.1916  139.5220  161.9442 C.3     1  UNL1        0.1752
     21 C         143.7496  138.8194  160.7421 C.3     1  UNL1        0.0785
     22 C         142.9310  137.5850  160.5052 C.3     1  UNL1        0.2108
     23 O         141.8671  137.5247  161.5609 O.3     1  UNL1       -0.4473
     24 C         142.0282  138.7218  162.4503 C.2     1  UNL1        0.3351
     25 O         141.1755  139.0595  163.6372 O.2     1  UNL1       -0.2483
@<TRIPOS>UNITY_ATOM_ATTR
11 1
charge 1
13 1
charge -1
@<TRIPOS>BOND
     1    16    17    2
     2    17    15    1
     3    15    14    1
     4    14     1    1
     5     1     2   am
     6     2     3    2
     7     2     5    1
     8     5     6   ar
     9     6     7   ar
    10     7     8   ar
    11     8     9   ar
    12     9    11    1
    13    11    12    2
    14    11    13    1
    15     9    10   ar
    16    17    18   am
    17    18    20    1
    18    20    21    1
    19    21    22    1
    20    22    23    1
    21    23    24    1
    22    24    25    2
    23    10     5   ar
    24    24    20    1
    25     1     4    1
    26    18    19    1
@<TRIPOS>MOLECULE
*****
 25 26 0 0 0
SMALL
GASTEIGER

@<TRIPOS>ATOM
      1 N         138.4803  140.9378  165.1195 N.am    1  UNL1       -0.3004
      2 C         139.7700  140.7963  165.8721 C.2     1  UNL1        0.2461
      3 O         141.0329  140.4546  165.1384 O.2     1  UNL1       -0.2701
      4 H         137.6514  141.1620  165.6011 H       1  UNL1        0.1498
      5 C         139.7969  140.9965  167.3585 C.ar    1  UNL1        0.0595
      6 C         139.2359  139.9433  168.2674 C.ar    1  UNL1        0.0049
      7 C         139.2629  140.1435  169.7537 C.ar    1  UNL1        0.0065
      8 C         139.8508  141.3968  170.3311 C.ar    1  UNL1        0.0753
      9 C         140.4118  142.4500  169.4223 C.ar    1  UNL1        0.2902
     10 C         140.3848  142.2498  167.9360 C.ar    1  UNL1        0.0798
     11 N         140.9997  143.7034  169.9997 N.pl3   1  UNL1        0.0809
     12 O         142.4521  143.7484  170.3715 O.2     1  UNL1        0.0415
     13 O         140.1351  144.9118  170.2053 O.co2   1  UNL1       -0.5760
     14 C         138.4533  140.7376  163.6332 C.3     1  UNL1        0.0993
     15 C         138.6031  141.9143  162.7151 C.3     1  UNL1        0.1062
     16 O         139.4009  144.3494  163.1439 O.2     1  UNL1       -0.2750
     17 C         139.7146  142.8979  162.9318 C.2     1  UNL1        0.2245
     18 N         141.1398  142.4301  162.9364 N.am    1  UNL1       -0.2966
     19 H         141.3457  141.4775  162.7972 H       1  UNL1        0.1499
     20 C         142.2513  143.4138  163.1532 C.3     1  UNL1        0.1752
     21 C         142.9169  143.7177  164.4626 C.3     1  UNL1        0.0785
     22 C         143.9694  144.7579  164.2173 C.3     1  UNL1        0.2108
     23 O         143.9542  145.0969  162.7561 O.3     1  UNL1       -0.4473
     24 C         142.8924  144.2662  162.0985 C.2     1  UNL1        0.3351
     25 O         142.5345  144.2847  160.6420 O.2     1  UNL1       -0.2483
@<TRIPOS>UNITY_ATOM_ATTR
11 1
charge 1
13 1
charge -1
@<TRIPOS>BOND
     1    16    17    2
     2    17    15    1
     3    15    14    1
     4    14     1    1
     5     1     2   am
     6     2     3    2
     7     2     5    1
     8     5     6   ar
     9     6     7   ar
    10     7     8   ar
    11     8     9   ar
    12     9    11    1
    13    11    12    2
    14    11    13    1
    15     9    10   ar
    16    17    18   am
    17    18    20    1
    18    20    21    1
    19    21    22    1
    20    22    23    1
    21    23    24    1
    22    24    25    2
    23    10     5   ar
    24    24    20    1
    25     1     4    1
    26    18    19    1
@<TRIPOS>MOLECULE
*****
 25 26 0 0 0
SMALL
GASTEIGER

@<TRIPOS>ATOM
      1 N         143.5732  142.7877  165.8646 N.am    1  UNL1       -0.3004
      2 C         142.7651  141.5248  165.9091 C.2     1  UNL1        0.2461
      3 O         142.8545  140.5371  164.7838 O.2     1  UNL1       -0.2701
      4 H         143.5145  143.4360  166.6033 H       1  UNL1        0.1498
      5 C         141.8676  141.2495  167.0791 C.ar    1  UNL1        0.0595
      6 C         140.7194  140.2951  166.9353 C.ar    1  UNL1        0.0049
      7 C         139.8219  140.0199  168.1052 C.ar    1  UNL1        0.0065
      8 C         140.0726  140.6990  169.4189 C.ar    1  UNL1        0.0753
      9 C         141.2208  141.6534  169.5627 C.ar    1  UNL1        0.2902
     10 C         142.1183  141.9286  168.3928 C.ar    1  UNL1        0.0798
     11 N         141.4715  142.3325  170.8765 N.pl3   1  UNL1        0.0809
     12 O         140.5773  142.0531  172.0479 O.2     1  UNL1        0.0415
     13 O         142.6164  143.2911  171.0188 O.co2   1  UNL1       -0.5760
     14 C         144.4707  143.0630  164.6947 C.3     1  UNL1        0.0993
     15 C         143.9517  143.8315  163.5157 C.3     1  UNL1        0.1062
     16 O         142.0692  142.7575  162.0831 O.2     1  UNL1       -0.2750
     17 C         142.5041  143.7340  163.1354 C.2     1  UNL1        0.2245
     18 N         141.4912  144.6131  163.8073 N.am    1  UNL1       -0.2966
     19 H         141.7766  145.2540  164.4979 H       1  UNL1        0.1499
     20 C         140.0435  144.5156  163.4269 C.3     1  UNL1        0.1752
     21 C         139.0737  143.4769  163.9071 C.3     1  UNL1        0.0785
     22 C         137.7423  143.7590  163.2765 C.3     1  UNL1        0.2108
     23 O         137.8892  144.9721  162.4065 O.3     1  UNL1       -0.4473
     24 C         139.3115  145.4397  162.4995 C.2     1  UNL1        0.3351
     25 O         139.8985  146.6235  161.7896 O.2     1  UNL1       -0.2483
@<TRIPOS>UNITY_ATOM_ATTR
11 1
charge 1
13 1
charge -1
@<TRIPOS>BOND
     1    16    17    2
     2    17    15    1
     3    15    14    1
     4    14     1    1
     5     1     2   am
     6     2     3    2
     7     2     5    1
     8     5     6   ar
     9     6     7   ar
    10     7     8   ar
    11     8     9   ar
    12     9    11    1
    13    11    12    2
    14    11    13    1
    15     9    10   ar
    16    17    18   am
    17    18    20    1
    18    20    21    1
    19    21    22    1
    20    22    23    1
    21    23    24    1
    22    24    25    2
    23    10     5   ar
    24    24    20    1
    25     1     4    1
    26    18    19    1
@<TRIPOS>MOLECULE
*****
 25 26 0 0 0
SMALL
GASTEIGER

@<TRIPOS>ATOM
      1 N         143.9009  143.1227  166.0849 N.am    1  UNL1       -0.3004
      2 C         143.0020  141.9227  166.1286 C.2     1  UNL1        0.2461
      3 O         142.5910  141.2467  164.8542 O.2     1  UNL1       -0.2701
      4 H         144.1706  143.5663  166.9213 H       1  UNL1        0.1498
      5 C         142.5140  141.3986  167.4467 C.ar    1  UNL1        0.0595
      6 C         142.7300  139.9589  167.8078 C.ar    1  UNL1        0.0049
      7 C         142.2421  139.4349  169.1258 C.ar    1  UNL1        0.0065
      8 C         141.5382  140.3507  170.0828 C.ar    1  UNL1        0.0753
      9 C         141.3222  141.7905  169.7217 C.ar    1  UNL1        0.2902
     10 C         141.8101  142.3144  168.4037 C.ar    1  UNL1        0.0798
     11 N         140.6182  142.7062  170.6787 N.pl3   1  UNL1        0.0809
     12 O         140.1319  144.0468  170.2137 O.2     1  UNL1        0.0415
     13 O         140.4006  142.2814  172.1007 O.co2   1  UNL1       -0.5760
     14 C         144.3888  143.6467  164.7668 C.3     1  UNL1        0.0993
     15 C         143.5961  144.6880  164.0338 C.3     1  UNL1        0.1062
     16 O         142.9008  144.5048  161.5372 O.2     1  UNL1       -0.2750
     17 C         142.6017  144.2759  162.9891 C.2     1  UNL1        0.2245
     18 N         141.3081  143.6349  163.3964 N.am    1  UNL1       -0.2966
     19 H         141.1118  143.4846  164.3494 H       1  UNL1        0.1499
     20 C         140.3137  143.2228  162.3518 C.3     1  UNL1        0.1752
     21 C         140.2493  141.8860  161.6744 C.3     1  UNL1        0.0785
     22 C         139.1048  141.9122  160.7051 C.3     1  UNL1        0.2108
     23 O         138.4620  143.2652  160.7834 O.3     1  UNL1       -0.4473
     24 C         139.2091  144.0752  161.8011 C.2     1  UNL1        0.3351
     25 O         138.9050  145.4893  162.1984 O.2     1  UNL1       -0.2483
@<TRIPOS>UNITY_ATOM_ATTR
11 1
charge 1
13 1
charge -1
@<TRIPOS>BOND
     1    16    17    2
     2    17    15    1
     3    15    14    1
     4    14     1    1
     5     1     2   am
     6     2     3    2
     7     2     5    1
     8     5     6   ar
     9     6     7   ar
    10     7     8   ar
    11     8     9   ar
    12     9    11    1
    13    11    12    2
    14    11    13    1
    15     9    10   ar
    16    17    18   am
    17    18    20    1
    18    20    21    1
    19    21    22    1
    20    22    23    1
    21    23    24    1
    22    24    25    2
    23    10     5   ar
    24    24    20    1
    25     1     4    1
    26    18    19    1
@<TRIPOS>MOLECULE
*****
 25 26 0 0 0
SMALL
GASTEIGER

@<TRIPOS>ATOM
      1 N         139.8558  138.6717  165.3877 N.am    1  UNL1       -0.3004
      2 C         139.2435  139.3616  166.5705 C.2     1  UNL1        0.2461
      3 O         137.8603  138.9943  167.0198 O.2     1  UNL1       -0.2701
      4 H         140.7636  138.9128  165.0928 H       1  UNL1        0.1498
      5 C         140.0143  140.4189  167.3040 C.ar    1  UNL1        0.0595
      6 C         141.1261  141.1516  166.6133 C.ar    1  UNL1        0.0049
      7 C         141.8968  142.2089  167.3468 C.ar    1  UNL1        0.0065
      8 C         141.5558  142.5335  168.7710 C.ar    1  UNL1        0.0753
      9 C         140.4440  141.8008  169.4617 C.ar    1  UNL1        0.2902
     10 C         139.6732  140.7435  168.7282 C.ar    1  UNL1        0.0798
     11 N         140.1030  142.1254  170.8859 N.pl3   1  UNL1        0.0809
     12 O         139.2608  143.3261  171.2005 O.2     1  UNL1        0.0415
     13 O         140.6041  141.2492  171.9955 O.co2   1  UNL1       -0.5760
     14 C         139.0850  137.6144  164.6542 C.3     1  UNL1        0.0993
     15 C         139.1436  137.5463  163.1569 C.3     1  UNL1        0.1062
     16 O         137.4295  138.6946  161.5780 O.2     1  UNL1       -0.2750
     17 C         138.7238  138.7290  162.3354 C.2     1  UNL1        0.2245
     18 N         139.5982  139.9461  162.2712 N.am    1  UNL1       -0.2966
     19 H         140.4477  139.9687  162.7683 H       1  UNL1        0.1499
     20 C         139.1784  141.1288  161.4497 C.3     1  UNL1        0.1752
     21 C         139.8420  141.6101  160.1936 C.3     1  UNL1        0.0785
     22 C         139.0950  142.8166  159.7076 C.3     1  UNL1        0.2108
     23 O         137.9695  143.0810  160.6635 O.3     1  UNL1       -0.4473
     24 C         138.0211  142.0378  161.7401 C.2     1  UNL1        0.3351
     25 O         137.0805  141.9238  162.9030 O.2     1  UNL1       -0.2483
@<TRIPOS>UNITY_ATOM_ATTR
11 1
charge 1
13 1
charge -1
@<TRIPOS>BOND
     1    16    17    2
     2    17    15    1
     3    15    14    1
     4    14     1    1
     5     1     2   am
     6     2     3    2
     7     2     5    1
     8     5     6   ar
     9     6     7   ar
    10     7     8   ar
    11     8     9   ar
    12     9    11    1
    13    11    12    2
    14    11    13    1
    15     9    10   ar
    16    17    18   am
    17    18    20    1
    18    20    21    1
    19    21    22    1
    20    22    23    1
    21    23    24    1
    22    24    25    2
    23    10     5   ar
    24    24    20    1
    25     1     4    1
    26    18    19    1
@<TRIPOS>MOLECULE
*****
 25 26 0 0 0
SMALL
GASTEIGER

@<TRIPOS>ATOM
      1 N         140.6535  138.4051  165.2431 N.am    1  UNL1       -0.3004
      2 C         141.6457  139.0707  166.1499 C.2     1  UNL1        0.2461
      3 O         143.0665  138.5913  166.1878 O.2     1  UNL1       -0.2701
      4 H         139.7210  138.7198  165.2183 H       1  UNL1        0.1498
      5 C         141.2172  140.2160  167.0188 C.ar    1  UNL1        0.0595
      6 C         141.0620  141.5868  166.4302 C.ar    1  UNL1        0.0049
      7 C         140.6335  142.7320  167.2991 C.ar    1  UNL1        0.0065
      8 C         140.3602  142.5062  168.7566 C.ar    1  UNL1        0.0753
      9 C         140.5154  141.1353  169.3452 C.ar    1  UNL1        0.2902
     10 C         140.9439  139.9902  168.4763 C.ar    1  UNL1        0.0798
     11 N         140.2421  140.9096  170.8027 N.pl3   1  UNL1        0.0809
     12 O         140.6194  141.9573  171.8076 O.2     1  UNL1        0.0415
     13 O         139.5915  139.6361  171.2553 O.co2   1  UNL1       -0.5760
     14 C         141.0820  137.2598  164.3742 C.3     1  UNL1        0.0993
     15 C         141.3788  137.4903  162.9221 C.3     1  UNL1        0.1062
     16 O         143.7378  137.8172  161.8839 O.2     1  UNL1       -0.2750
     17 C         142.5080  138.3926  162.5214 C.2     1  UNL1        0.2245
     18 N         142.4075  139.8704  162.7583 N.am    1  UNL1       -0.2966
     19 H         141.6003  140.2481  163.1767 H       1  UNL1        0.1499
     20 C         143.5367  140.7727  162.3576 C.3     1  UNL1        0.1752
     21 C         143.5187  141.7593  161.2278 C.3     1  UNL1        0.0785
     22 C         144.8531  142.4432  161.1883 C.3     1  UNL1        0.2108
     23 O         145.6958  141.8793  162.2937 O.3     1  UNL1       -0.4473
     24 C         144.8823  140.8469  163.0163 C.2     1  UNL1        0.3351
     25 O         145.3348  140.0318  164.1914 O.2     1  UNL1       -0.2483
@<TRIPOS>UNITY_ATOM_ATTR
11 1
charge 1
13 1
charge -1
@<TRIPOS>BOND
     1    16    17    2
     2    17    15    1
     3    15    14    1
     4    14     1    1
     5     1     2   am
     6     2     3    2
     7     2     5    1
     8     5     6   ar
     9     6     7   ar
    10     7     8   ar
    11     8     9   ar
    12     9    11    1
    13    11    12    2
    14    11    13    1
    15     9    10   ar
    16    17    18   am
    17    18    20    1
    18    20    21    1
    19    21    22    1
    20    22    23    1
    21    23    24    1
    22    24    25    2
    23    10     5   ar
    24    24    20    1
    25     1     4    1
    26    18    19    1
@<TRIPOS>MOLECULE
*****
 25 26 0 0 0
SMALL
GASTEIGER

@<TRIPOS>ATOM
      1 N         138.4940  140.5018  165.2769 N.am    1  UNL1       -0.3004
      2 C         139.8966  139.9750  165.3491 C.2     1  UNL1        0.2461
      3 O         140.6121  139.5721  164.0938 O.2     1  UNL1       -0.2701
      4 H         138.0245  140.7662  166.1008 H       1  UNL1        0.1498
      5 C         140.5838  139.8510  166.6767 C.ar    1  UNL1        0.0595
      6 C         142.0379  139.4882  166.7376 C.ar    1  UNL1        0.0049
      7 C         142.7250  139.3643  168.0652 C.ar    1  UNL1        0.0065
      8 C         141.9580  139.6031  169.3319 C.ar    1  UNL1        0.0753
      9 C         140.5038  139.9659  169.2710 C.ar    1  UNL1        0.2902
     10 C         139.8167  140.0899  167.9435 C.ar    1  UNL1        0.0798
     11 N         139.7367  140.2047  170.5377 N.pl3   1  UNL1        0.0809
     12 O         140.4220  140.8106  171.7266 O.2     1  UNL1        0.0415
     13 O         138.2845  139.8377  170.6156 O.co2   1  UNL1       -0.5760
     14 C         137.8069  140.6258  163.9492 C.3     1  UNL1        0.0993
     15 C         137.5238  141.9823  163.3751 C.3     1  UNL1        0.1062
     16 O         138.3757  144.2458  162.4261 O.2     1  UNL1       -0.2750
     17 C         138.6576  142.8750  162.9660 C.2     1  UNL1        0.2245
     18 N         140.0734  142.3971  163.0969 N.am    1  UNL1       -0.2966
     19 H         140.2584  141.4974  163.4512 H       1  UNL1        0.1499
     20 C         141.2072  143.2898  162.6878 C.3     1  UNL1        0.1752
     21 C         142.0968  144.0655  163.6135 C.3     1  UNL1        0.0785
     22 C         143.0899  144.8188  162.7791 C.3     1  UNL1        0.2108
     23 O         142.8141  144.5086  161.3376 O.3     1  UNL1       -0.4473
     24 C         141.6505  143.5636  161.2812 C.2     1  UNL1        0.3351
     25 O         141.0379  142.9928  160.0368 O.2     1  UNL1       -0.2483
@<TRIPOS>UNITY_ATOM_ATTR
11 1
charge 1
13 1
charge -1
@<TRIPOS>BOND
     1    16    17    2
     2    17    15    1
     3    15    14    1
     4    14     1    1
     5     1     2   am
     6     2     3    2
     7     2     5    1
     8     5     6   ar
     9     6     7   ar
    10     7     8   ar
    11     8     9   ar
    12     9    11    1
    13    11    12    2
    14    11    13    1
    15     9    10   ar
    16    17    18   am
    17    18    20    1
    18    20    21    1
    19    21    22    1
    20    22    23    1
    21    23    24    1
    22    24    25    2
    23    10     5   ar
    24    24    20    1
    25     1     4    1
    26    18    19    1
