@<TRIPOS>MOLECULE
*****
 43 47 0 0 0
SMALL
GASTEIGER

@<TRIPOS>ATOM
      1 C         140.2444  140.8306  162.6256 C.3     1  UNL1        0.0764
      2 C         139.8058  140.4964  164.0206 C.ar    1  UNL1        0.0181
      3 C         140.5052  141.1141  165.1950 C.ar    1  UNL1       -0.0009
      4 C         140.0665  140.7800  166.5900 C.ar    1  UNL1        0.0006
      5 C         140.7659  141.3977  167.7644 C.ar    1  UNL1        0.0103
      6 C         140.3272  141.0635  169.1593 C.ar    1  UNL1        0.0684
      7 C         139.1891  140.1117  169.3798 C.ar    1  UNL1        0.0103
      8 C         138.4897  139.4939  168.2054 C.ar    1  UNL1        0.0008
      9 C         138.9284  139.8281  166.8105 C.ar    1  UNL1        0.0030
     10 C         138.2289  139.2104  165.6361 C.ar    1  UNL1        0.0366
     11 C         138.6676  139.5445  164.2411 C.ar    1  UNL1        0.1351
     12 C         141.0266  141.6813  170.3337 C.1     1  UNL1        0.1004
     13 N         141.7259  142.2989  171.5082 N.1     1  UNL1       -0.1908
     14 O         137.9682  138.9268  163.0667 O.3     1  UNL1       -0.4717
     15 C         138.4946  137.6589  162.4622 C.3     1  UNL1        0.2525
     16 C         144.1584  140.5773  162.0201 C.ar    1  UNL1        0.2271
     17 C         142.8304  141.0592  162.5244 C.ar    1  UNL1        0.0540
     18 C         141.5724  140.3487  162.1213 C.ar    1  UNL1       -0.0064
     19 C         141.6422  139.1564  161.2139 C.ar    1  UNL1        0.0540
     20 C         142.9702  138.6745  160.7095 C.ar    1  UNL1        0.2272
     21 N         144.2283  139.3849  161.1127 N.ar    1  UNL1       -0.1767
     22 O         143.0401  137.4821  159.8021 O.3     1  UNL1       -0.4561
     23 C         142.6020  137.6010  158.3725 C.3     1  UNL1        0.2542
     24 O         145.4164  141.2878  162.4232 O.3     1  UNL1       -0.4602
     25 C         145.0394  142.7459  164.5403 C.3     1  UNL1        0.0512
     26 C         145.6873  141.5699  163.8714 C.3     1  UNL1        0.2072
     27 C         139.3551  141.6466  161.7349 C.3     1  UNL1        0.1186
     28 O         139.3712  140.5487  160.7130 O.3     1  UNL1       -0.3819
     29 H         139.7779  140.8745  159.8948 H       1  UNL1        0.2107
     30 C         139.3390  142.7444  162.7569 C.ar    1  UNL1        0.0369
     31 C         138.1529  142.9113  163.6598 C.ar    1  UNL1        0.0010
     32 C         138.1368  144.0091  164.6818 C.ar    1  UNL1       -0.0000
     33 C         139.3068  144.9402  164.8008 C.ar    1  UNL1        0.0031
     34 C         140.4929  144.7734  163.8979 C.ar    1  UNL1        0.0375
     35 C         141.7817  145.5323  163.7832 C.ar    1  UNL1        0.0437
     36 C         142.5943  144.9035  162.6904 C.ar    1  UNL1        0.1796
     37 O         141.8077  143.7559  162.1296 O.2     1  UNL1       -0.4507
     38 C         140.5090  143.6755  162.8759 C.ar    1  UNL1        0.1436
     39 C         138.4658  142.4626  160.8443 C.3     1  UNL1        0.0492
     40 C         138.8598  142.7150  159.4191 C.3     1  UNL1        0.0750
     41 N         140.1611  143.3939  159.1097 N.3     1  UNL1       -0.2702
     42 C         141.3599  142.5782  158.7257 C.3     1  UNL1        0.0897
     43 C         140.2636  144.8886  159.1843 C.3     1  UNL1        0.0897
@<TRIPOS>BOND
     1    25    26    1
     2    26    24    1
     3    24    16    1
     4    16    17   ar
     5    17    18   ar
     6     1    18    1
     7     1     2    1
     8     2     3   ar
     9     3     4   ar
    10     4     5   ar
    11     5     6   ar
    12     6    12    1
    13    12    13    3
    14     6     7   ar
    15     7     8   ar
    16     8     9   ar
    17     9    10   ar
    18    10    11   ar
    19    11    14    1
    20    14    15    1
    21     1    27    1
    22    27    28    1
    23    27    39    1
    24    39    40    1
    25    40    41    1
    26    41    42    1
    27    41    43    1
    28    27    30    1
    29    30    31   ar
    30    31    32   ar
    31    32    33   ar
    32    33    34   ar
    33    34    35   ar
    34    35    36   ar
    35    36    37   ar
    36    37    38   ar
    37    18    19   ar
    38    19    20   ar
    39    20    22    1
    40    22    23    1
    41    20    21   ar
    42    21    16   ar
    43    11     2   ar
    44    38    30   ar
    45     9     4   ar
    46    38    34   ar
    47    28    29    1
@<TRIPOS>MOLECULE
*****
 43 47 0 0 0
SMALL
GASTEIGER

@<TRIPOS>ATOM
      1 C         140.9458  141.6869  165.7135 C.3     1  UNL1        0.0764
      2 C         140.8310  142.6056  164.5332 C.ar    1  UNL1        0.0181
      3 C         141.5379  142.2733  163.2526 C.ar    1  UNL1       -0.0009
      4 C         141.4230  143.1919  162.0723 C.ar    1  UNL1        0.0006
      5 C         142.1299  142.8597  160.7918 C.ar    1  UNL1        0.0103
      6 C         142.0151  143.7783  159.6116 C.ar    1  UNL1        0.0684
      7 C         141.1933  145.0291  159.7119 C.ar    1  UNL1        0.0103
      8 C         140.4864  145.3614  160.9925 C.ar    1  UNL1        0.0008
      9 C         140.6013  144.4428  162.1727 C.ar    1  UNL1        0.0030
     10 C         139.8944  144.7750  163.4533 C.ar    1  UNL1        0.0366
     11 C         140.0092  143.8564  164.6335 C.ar    1  UNL1        0.1351
     12 C         142.7220  143.4460  158.3309 C.1     1  UNL1        0.1004
     13 N         143.4289  143.1139  157.0503 N.1     1  UNL1       -0.1908
     14 O         139.3023  144.1887  165.9142 O.3     1  UNL1       -0.4717
     15 C         138.1707  145.1732  165.9125 C.3     1  UNL1        0.2525
     16 C         138.8821  138.4150  164.8273 C.ar    1  UNL1        0.2271
     17 C         139.8132  139.5832  164.6928 C.ar    1  UNL1        0.0540
     18 C         140.0147  140.5187  165.8480 C.ar    1  UNL1       -0.0064
     19 C         139.2850  140.2859  167.1376 C.ar    1  UNL1        0.0540
     20 C         138.3538  139.1176  167.2722 C.ar    1  UNL1        0.2272
     21 N         138.1523  138.1821  166.1170 N.ar    1  UNL1       -0.1767
     22 O         137.6241  138.8847  168.5619 O.3     1  UNL1       -0.4561
     23 C         138.0234  139.6380  169.7960 C.3     1  UNL1        0.2542
     24 O         138.6807  137.4796  163.6722 O.3     1  UNL1       -0.4602
     25 C         137.7240  138.8977  161.7167 C.3     1  UNL1        0.0512
     26 C         138.7853  137.9910  162.2659 C.3     1  UNL1        0.2072
     27 C         141.9918  141.9366  166.7592 C.3     1  UNL1        0.1186
     28 O         141.0504  142.8540  167.4818 O.3     1  UNL1       -0.3819
     29 H         141.4226  143.7496  167.5009 H       1  UNL1        0.2107
     30 C         142.9332  141.0192  166.0366 C.ar    1  UNL1        0.0369
     31 C         142.8834  139.5418  166.2905 C.ar    1  UNL1        0.0010
     32 C         143.8248  138.6244  165.5680 C.ar    1  UNL1       -0.0000
     33 C         144.8160  139.1845  164.5914 C.ar    1  UNL1        0.0031
     34 C         144.8659  140.6619  164.3375 C.ar    1  UNL1        0.0375
     35 C         145.7284  141.4973  163.4385 C.ar    1  UNL1        0.0437
     36 C         145.3201  142.9310  163.6055 C.ar    1  UNL1        0.1796
     37 O         144.2052  142.9817  164.6077 O.2     1  UNL1       -0.4507
     38 C         143.9244  141.5793  165.0600 C.ar    1  UNL1        0.1436
     39 C         143.0378  142.1863  167.8049 C.3     1  UNL1        0.0492
     40 C         142.6299  142.4943  169.2152 C.3     1  UNL1        0.0750
     41 N         141.9795  141.4360  170.0559 N.3     1  UNL1       -0.2702
     42 C         142.4449  140.0131  169.9629 C.3     1  UNL1        0.0897
     43 C         140.8635  141.8006  170.9897 C.3     1  UNL1        0.0897
@<TRIPOS>BOND
     1    25    26    1
     2    26    24    1
     3    24    16    1
     4    16    17   ar
     5    17    18   ar
     6     1    18    1
     7     1     2    1
     8     2     3   ar
     9     3     4   ar
    10     4     5   ar
    11     5     6   ar
    12     6    12    1
    13    12    13    3
    14     6     7   ar
    15     7     8   ar
    16     8     9   ar
    17     9    10   ar
    18    10    11   ar
    19    11    14    1
    20    14    15    1
    21     1    27    1
    22    27    28    1
    23    27    39    1
    24    39    40    1
    25    40    41    1
    26    41    42    1
    27    41    43    1
    28    27    30    1
    29    30    31   ar
    30    31    32   ar
    31    32    33   ar
    32    33    34   ar
    33    34    35   ar
    34    35    36   ar
    35    36    37   ar
    36    37    38   ar
    37    18    19   ar
    38    19    20   ar
    39    20    22    1
    40    22    23    1
    41    20    21   ar
    42    21    16   ar
    43    11     2   ar
    44    38    30   ar
    45     9     4   ar
    46    38    34   ar
    47    28    29    1
@<TRIPOS>MOLECULE
*****
 43 47 0 0 0
SMALL
GASTEIGER

@<TRIPOS>ATOM
      1 C         140.0683  140.1572  164.2354 C.3     1  UNL1        0.0764
      2 C         140.0313  140.3333  165.7247 C.ar    1  UNL1        0.0181
      3 C         141.0128  141.2474  166.3964 C.ar    1  UNL1       -0.0009
      4 C         140.9757  141.4235  167.8856 C.ar    1  UNL1        0.0006
      5 C         141.9572  142.3375  168.5574 C.ar    1  UNL1        0.0103
      6 C         141.9201  142.5136  170.0465 C.ar    1  UNL1        0.0684
      7 C         140.9016  141.7757  170.8639 C.ar    1  UNL1        0.0103
      8 C         139.9202  140.8616  170.1921 C.ar    1  UNL1        0.0008
      9 C         139.9573  140.6855  168.7030 C.ar    1  UNL1        0.0030
     10 C         138.9758  139.7715  168.0312 C.ar    1  UNL1        0.0366
     11 C         139.0129  139.5954  166.5420 C.ar    1  UNL1        0.1351
     12 C         142.9016  143.4277  170.7183 C.1     1  UNL1        0.1004
     13 N         143.8830  144.3417  171.3901 N.1     1  UNL1       -0.1908
     14 O         138.0314  138.6813  165.8702 O.3     1  UNL1       -0.4717
     15 C         138.1517  137.1959  166.0409 C.3     1  UNL1        0.2525
     16 C         143.8885  139.4178  163.4549 C.ar    1  UNL1        0.2271
     17 C         142.6562  139.9609  164.1155 C.ar    1  UNL1        0.0540
     18 C         141.3007  139.6142  163.5748 C.ar    1  UNL1       -0.0064
     19 C         141.1775  138.7244  162.3736 C.ar    1  UNL1        0.0540
     20 C         142.4098  138.1813  161.7129 C.ar    1  UNL1        0.2272
     21 N         143.7654  138.5280  162.2536 N.ar    1  UNL1       -0.1767
     22 O         142.2866  137.2916  160.5116 O.3     1  UNL1       -0.4561
     23 C         142.6577  137.8094  159.1536 C.3     1  UNL1        0.2542
     24 O         145.2440  139.7645  163.9956 O.3     1  UNL1       -0.4602
     25 C         145.4207  142.0656  162.8024 C.3     1  UNL1        0.0512
     26 C         145.7146  141.1888  163.9835 C.3     1  UNL1        0.2072
     27 C         138.8730  140.5241  163.4069 C.3     1  UNL1        0.1186
     28 O         138.6199  139.0720  163.1289 O.3     1  UNL1       -0.3819
     29 H         138.6998  138.9064  162.1765 H       1  UNL1        0.2107
     30 C         139.1261  141.9763  163.6849 C.ar    1  UNL1        0.0369
     31 C         138.2966  142.7006  164.7033 C.ar    1  UNL1        0.0010
     32 C         138.5497  144.1527  164.9813 C.ar    1  UNL1       -0.0000
     33 C         139.6323  144.8805  164.2408 C.ar    1  UNL1        0.0031
     34 C         140.4617  144.1562  163.2223 C.ar    1  UNL1        0.0375
     35 C         141.5898  144.6068  162.3424 C.ar    1  UNL1        0.0437
     36 C         142.0339  143.4332  161.5205 C.ar    1  UNL1        0.1796
     37 O         141.1803  142.2572  161.8926 O.2     1  UNL1       -0.4507
     38 C         140.2086  142.7041  162.9444 C.ar    1  UNL1        0.1436
     39 C         137.6776  140.8911  162.5784 C.3     1  UNL1        0.0492
     40 C         137.4534  140.2293  161.2510 C.3     1  UNL1        0.0750
     41 N         138.3944  140.4929  160.1130 N.3     1  UNL1       -0.2702
     42 C         139.1244  139.3543  159.4644 C.3     1  UNL1        0.0897
     43 C         138.6054  141.8951  159.6237 C.3     1  UNL1        0.0897
@<TRIPOS>BOND
     1    25    26    1
     2    26    24    1
     3    24    16    1
     4    16    17   ar
     5    17    18   ar
     6     1    18    1
     7     1     2    1
     8     2     3   ar
     9     3     4   ar
    10     4     5   ar
    11     5     6   ar
    12     6    12    1
    13    12    13    3
    14     6     7   ar
    15     7     8   ar
    16     8     9   ar
    17     9    10   ar
    18    10    11   ar
    19    11    14    1
    20    14    15    1
    21     1    27    1
    22    27    28    1
    23    27    39    1
    24    39    40    1
    25    40    41    1
    26    41    42    1
    27    41    43    1
    28    27    30    1
    29    30    31   ar
    30    31    32   ar
    31    32    33   ar
    32    33    34   ar
    33    34    35   ar
    34    35    36   ar
    35    36    37   ar
    36    37    38   ar
    37    18    19   ar
    38    19    20   ar
    39    20    22    1
    40    22    23    1
    41    20    21   ar
    42    21    16   ar
    43    11     2   ar
    44    38    30   ar
    45     9     4   ar
    46    38    34   ar
    47    28    29    1
@<TRIPOS>MOLECULE
*****
 43 47 0 0 0
SMALL
GASTEIGER

@<TRIPOS>ATOM
      1 C         140.8456  140.0577  162.4892 C.3     1  UNL1        0.0764
      2 C         140.1787  139.7967  163.8073 C.ar    1  UNL1        0.0181
      3 C         140.5719  140.5915  165.0171 C.ar    1  UNL1       -0.0009
      4 C         139.9050  140.3305  166.3352 C.ar    1  UNL1        0.0006
      5 C         140.2982  141.1253  167.5450 C.ar    1  UNL1        0.0103
      6 C         139.6314  140.8643  168.8630 C.ar    1  UNL1        0.0684
      7 C         138.5714  139.8085  168.9712 C.ar    1  UNL1        0.0103
      8 C         138.1782  139.0137  167.7613 C.ar    1  UNL1        0.0008
      9 C         138.8450  139.2747  166.4434 C.ar    1  UNL1        0.0030
     10 C         138.4519  138.4799  165.2334 C.ar    1  UNL1        0.0366
     11 C         139.1187  138.7409  163.9155 C.ar    1  UNL1        0.1351
     12 C         140.0245  141.6591  170.0729 C.1     1  UNL1        0.1004
     13 N         140.4176  142.4538  171.2827 N.1     1  UNL1       -0.1908
     14 O         138.7256  137.9461  162.7055 O.3     1  UNL1       -0.4717
     15 C         137.6510  138.4546  161.7909 C.3     1  UNL1        0.2525
     16 C         139.4171  143.6576  161.6233 C.ar    1  UNL1        0.2271
     17 C         139.6505  142.3596  162.3379 C.ar    1  UNL1        0.0540
     18 C         140.6122  141.3557  161.7746 C.ar    1  UNL1       -0.0064
     19 C         141.3405  141.6498  160.4967 C.ar    1  UNL1        0.0540
     20 C         141.1072  142.9478  159.7820 C.ar    1  UNL1        0.2272
     21 N         140.1455  143.9517  160.3453 N.ar    1  UNL1       -0.1767
     22 O         141.8355  143.2419  158.5042 O.3     1  UNL1       -0.4561
     23 C         142.1861  144.6565  158.1493 C.3     1  UNL1        0.2542
     24 O         138.4554  144.6615  162.1865 O.3     1  UNL1       -0.4602
     25 C         138.5020  144.6392  164.7841 C.3     1  UNL1        0.0512
     26 C         137.7738  144.3945  163.4958 C.3     1  UNL1        0.2072
     27 C         141.7458  139.0206  161.8858 C.3     1  UNL1        0.1186
     28 O         140.8011  138.8730  160.7301 O.3     1  UNL1       -0.3819
     29 H         140.4506  137.9687  160.7124 H       1  UNL1        0.2107
     30 C         142.6905  139.1682  163.0415 C.ar    1  UNL1        0.0369
     31 C         142.5809  138.2493  164.2220 C.ar    1  UNL1        0.0010
     32 C         143.5256  138.3969  165.3777 C.ar    1  UNL1       -0.0000
     33 C         144.5800  139.4634  165.3530 C.ar    1  UNL1        0.0031
     34 C         144.6896  140.3824  164.1726 C.ar    1  UNL1        0.0375
     35 C         145.6208  141.5183  163.8680 C.ar    1  UNL1        0.0437
     36 C         145.2515  142.0727  162.5240 C.ar    1  UNL1        0.1796
     37 O         144.0922  141.2795  161.9979 O.2     1  UNL1       -0.4507
     38 C         143.7449  140.2348  163.0169 C.ar    1  UNL1        0.1436
     39 C         142.6461  137.9836  161.2824 C.3     1  UNL1        0.0492
     40 C         143.6633  138.3803  160.2538 C.3     1  UNL1        0.0750
     41 N         143.2480  138.5801  158.8264 N.3     1  UNL1       -0.2702
     42 C         143.4586  139.9088  158.1630 C.3     1  UNL1        0.0897
     43 C         142.6221  137.4512  158.0623 C.3     1  UNL1        0.0897
@<TRIPOS>BOND
     1    25    26    1
     2    26    24    1
     3    24    16    1
     4    16    17   ar
     5    17    18   ar
     6     1    18    1
     7     1     2    1
     8     2     3   ar
     9     3     4   ar
    10     4     5   ar
    11     5     6   ar
    12     6    12    1
    13    12    13    3
    14     6     7   ar
    15     7     8   ar
    16     8     9   ar
    17     9    10   ar
    18    10    11   ar
    19    11    14    1
    20    14    15    1
    21     1    27    1
    22    27    28    1
    23    27    39    1
    24    39    40    1
    25    40    41    1
    26    41    42    1
    27    41    43    1
    28    27    30    1
    29    30    31   ar
    30    31    32   ar
    31    32    33   ar
    32    33    34   ar
    33    34    35   ar
    34    35    36   ar
    35    36    37   ar
    36    37    38   ar
    37    18    19   ar
    38    19    20   ar
    39    20    22    1
    40    22    23    1
    41    20    21   ar
    42    21    16   ar
    43    11     2   ar
    44    38    30   ar
    45     9     4   ar
    46    38    34   ar
    47    28    29    1
@<TRIPOS>MOLECULE
*****
 43 47 0 0 0
SMALL
GASTEIGER

@<TRIPOS>ATOM
      1 C         140.2936  140.8115  162.6956 C.3     1  UNL1        0.0764
      2 C         139.8449  140.4857  164.0894 C.ar    1  UNL1        0.0181
      3 C         140.5330  141.1138  165.2649 C.ar    1  UNL1       -0.0009
      4 C         140.0842  140.7880  166.6587 C.ar    1  UNL1        0.0006
      5 C         140.7723  141.4161  167.8343 C.ar    1  UNL1        0.0103
      6 C         140.3236  141.0904  169.2280 C.ar    1  UNL1        0.0684
      7 C         139.1867  140.1364  169.4461 C.ar    1  UNL1        0.0103
      8 C         138.4986  139.5083  168.2706 C.ar    1  UNL1        0.0008
      9 C         138.9474  139.8341  166.8769 C.ar    1  UNL1        0.0030
     10 C         138.2593  139.2060  165.7013 C.ar    1  UNL1        0.0366
     11 C         138.7080  139.5318  164.3076 C.ar    1  UNL1        0.1351
     12 C         141.0117  141.7185  170.4036 C.1     1  UNL1        0.1004
     13 N         141.6998  142.3466  171.5791 N.1     1  UNL1       -0.1908
     14 O         138.0199  138.9036  163.1319 O.3     1  UNL1       -0.4717
     15 C         138.5587  137.6366  162.5366 C.3     1  UNL1        0.2525
     16 C         143.0201  138.7725  160.6563 C.ar    1  UNL1        0.2271
     17 C         141.6896  139.2593  161.1490 C.ar    1  UNL1        0.0540
     18 C         141.6241  140.3246  162.2030 C.ar    1  UNL1       -0.0064
     19 C         142.8891  140.9029  162.7644 C.ar    1  UNL1        0.0540
     20 C         144.2197  140.4160  162.2718 C.ar    1  UNL1        0.2272
     21 N         144.2852  139.3508  161.2178 N.ar    1  UNL1       -0.1767
     22 O         145.4847  140.9943  162.8333 O.3     1  UNL1       -0.4561
     23 C         145.4191  142.0728  163.8737 C.3     1  UNL1        0.2542
     24 O         143.0855  137.7072  159.6023 O.3     1  UNL1       -0.4602
     25 C         142.5727  136.9053  157.1848 C.3     1  UNL1        0.0512
     26 C         142.4149  137.9207  158.2776 C.3     1  UNL1        0.2072
     27 C         139.4118  141.6241  161.7945 C.3     1  UNL1        0.1186
     28 O         139.4097  140.5092  160.7911 O.3     1  UNL1       -0.3819
     29 H         139.8176  140.8158  159.9662 H       1  UNL1        0.2107
     30 C         139.4140  142.7391  162.7979 C.ar    1  UNL1        0.0369
     31 C         138.2285  142.9441  163.6938 C.ar    1  UNL1        0.0010
     32 C         138.2306  144.0591  164.6972 C.ar    1  UNL1       -0.0000
     33 C         139.4183  144.9690  164.8048 C.ar    1  UNL1        0.0031
     34 C         140.6037  144.7639  163.9090 C.ar    1  UNL1        0.0375
     35 C         141.9075  145.4955  163.7862 C.ar    1  UNL1        0.0437
     36 C         142.7111  144.8327  162.7070 C.ar    1  UNL1        0.1796
     37 O         141.9040  143.6914  162.1626 O.2     1  UNL1       -0.4507
     38 C         140.6016  143.6490  162.9056 C.ar    1  UNL1        0.1436
     39 C         138.5300  142.4368  160.8934 C.3     1  UNL1        0.0492
     40 C         138.9195  142.6560  159.4615 C.3     1  UNL1        0.0750
     41 N         140.2215  143.3243  159.1323 N.3     1  UNL1       -0.2702
     42 C         140.3467  144.8154  159.2370 C.3     1  UNL1        0.0897
     43 C         141.3982  142.5014  158.6983 C.3     1  UNL1        0.0897
@<TRIPOS>BOND
     1    25    26    1
     2    26    24    1
     3    24    16    1
     4    16    17   ar
     5    17    18   ar
     6     1    18    1
     7     1     2    1
     8     2     3   ar
     9     3     4   ar
    10     4     5   ar
    11     5     6   ar
    12     6    12    1
    13    12    13    3
    14     6     7   ar
    15     7     8   ar
    16     8     9   ar
    17     9    10   ar
    18    10    11   ar
    19    11    14    1
    20    14    15    1
    21     1    27    1
    22    27    28    1
    23    27    39    1
    24    39    40    1
    25    40    41    1
    26    41    42    1
    27    41    43    1
    28    27    30    1
    29    30    31   ar
    30    31    32   ar
    31    32    33   ar
    32    33    34   ar
    33    34    35   ar
    34    35    36   ar
    35    36    37   ar
    36    37    38   ar
    37    18    19   ar
    38    19    20   ar
    39    20    22    1
    40    22    23    1
    41    20    21   ar
    42    21    16   ar
    43    11     2   ar
    44    38    30   ar
    45     9     4   ar
    46    38    34   ar
    47    28    29    1
@<TRIPOS>MOLECULE
*****
 43 47 0 0 0
SMALL
GASTEIGER

@<TRIPOS>ATOM
      1 C         141.9756  141.2280  162.7288 C.3     1  UNL1        0.0764
      2 C         142.0791  141.3669  164.2189 C.ar    1  UNL1        0.0181
      3 C         140.9504  140.9100  165.0949 C.ar    1  UNL1       -0.0009
      4 C         141.0539  141.0489  166.5849 C.ar    1  UNL1        0.0006
      5 C         139.9253  140.5920  167.4609 C.ar    1  UNL1        0.0103
      6 C         140.0288  140.7310  168.9508 C.ar    1  UNL1        0.0684
      7 C         141.2609  141.3267  169.5647 C.ar    1  UNL1        0.0103
      8 C         142.3895  141.7836  168.6887 C.ar    1  UNL1        0.0008
      9 C         142.2860  141.6447  167.1988 C.ar    1  UNL1        0.0030
     10 C         143.4147  142.1016  166.3227 C.ar    1  UNL1        0.0366
     11 C         143.3112  141.9627  164.8328 C.ar    1  UNL1        0.1351
     12 C         138.9001  140.2741  169.8269 C.1     1  UNL1        0.1004
     13 N         137.7715  139.8171  170.7029 N.1     1  UNL1       -0.1908
     14 O         144.4398  142.4196  163.9567 O.3     1  UNL1       -0.4717
     15 C         145.7220  141.6420  163.9188 C.3     1  UNL1        0.2525
     16 C         139.2658  143.9630  161.7662 C.ar    1  UNL1        0.2271
     17 C         140.0425  142.9557  162.5612 C.ar    1  UNL1        0.0540
     18 C         141.1990  142.2354  161.9338 C.ar    1  UNL1       -0.0064
     19 C         141.5788  142.5223  160.5114 C.ar    1  UNL1        0.0540
     20 C         140.8022  143.5297  159.7163 C.ar    1  UNL1        0.2272
     21 N         139.6457  144.2500  160.3437 N.ar    1  UNL1       -0.1767
     22 O         141.1820  143.8167  158.2939 O.3     1  UNL1       -0.4561
     23 C         142.6108  144.1100  157.9438 C.3     1  UNL1        0.2542
     24 O         138.1093  144.6834  162.3936 O.3     1  UNL1       -0.4602
     25 C         138.4231  144.7170  164.9725 C.3     1  UNL1        0.0512
     26 C         137.6394  144.2965  163.7646 C.3     1  UNL1        0.2072
     27 C         142.6488  140.0818  162.0339 C.3     1  UNL1        0.1186
     28 O         143.6518  141.0284  161.4441 O.3     1  UNL1       -0.3819
     29 H         143.5763  141.0182  160.4771 H       1  UNL1        0.2107
     30 C         141.6458  139.1351  162.6238 C.ar    1  UNL1        0.0369
     31 C         142.0215  138.2799  163.7974 C.ar    1  UNL1        0.0010
     32 C         141.0186  137.3333  164.3872 C.ar    1  UNL1       -0.0000
     33 C         139.6399  137.2418  163.8034 C.ar    1  UNL1        0.0031
     34 C         139.2642  138.0970  162.6298 C.ar    1  UNL1        0.0375
     35 C         137.9909  138.2239  161.8471 C.ar    1  UNL1        0.0437
     36 C         138.2069  139.2489  160.7735 C.ar    1  UNL1        0.1796
     37 O         139.6138  139.7556  160.8927 O.2     1  UNL1       -0.4507
     38 C         140.2672  139.0437  162.0400 C.ar    1  UNL1        0.1436
     39 C         143.3220  138.9355  161.3390 C.3     1  UNL1        0.0492
     40 C         144.1593  139.1851  160.1196 C.3     1  UNL1        0.0750
     41 N         143.5117  139.2671  158.7691 N.3     1  UNL1       -0.2702
     42 C         143.7437  140.4658  157.8977 C.3     1  UNL1        0.0897
     43 C         142.6321  138.1505  158.2900 C.3     1  UNL1        0.0897
@<TRIPOS>BOND
     1    25    26    1
     2    26    24    1
     3    24    16    1
     4    16    17   ar
     5    17    18   ar
     6     1    18    1
     7     1     2    1
     8     2     3   ar
     9     3     4   ar
    10     4     5   ar
    11     5     6   ar
    12     6    12    1
    13    12    13    3
    14     6     7   ar
    15     7     8   ar
    16     8     9   ar
    17     9    10   ar
    18    10    11   ar
    19    11    14    1
    20    14    15    1
    21     1    27    1
    22    27    28    1
    23    27    39    1
    24    39    40    1
    25    40    41    1
    26    41    42    1
    27    41    43    1
    28    27    30    1
    29    30    31   ar
    30    31    32   ar
    31    32    33   ar
    32    33    34   ar
    33    34    35   ar
    34    35    36   ar
    35    36    37   ar
    36    37    38   ar
    37    18    19   ar
    38    19    20   ar
    39    20    22    1
    40    22    23    1
    41    20    21   ar
    42    21    16   ar
    43    11     2   ar
    44    38    30   ar
    45     9     4   ar
    46    38    34   ar
    47    28    29    1
@<TRIPOS>MOLECULE
*****
 43 47 0 0 0
SMALL
GASTEIGER

@<TRIPOS>ATOM
      1 C         140.9830  140.3446  162.5831 C.3     1  UNL1        0.0764
      2 C         140.2812  140.0439  163.8743 C.ar    1  UNL1        0.0181
      3 C         140.7096  140.7291  165.1380 C.ar    1  UNL1       -0.0009
      4 C         140.0078  140.4284  166.4292 C.ar    1  UNL1        0.0006
      5 C         140.4361  141.1136  167.6929 C.ar    1  UNL1        0.0103
      6 C         139.7344  140.8129  168.9840 C.ar    1  UNL1        0.0684
      7 C         138.6042  139.8270  169.0114 C.ar    1  UNL1        0.0103
      8 C         138.1758  139.1418  167.7477 C.ar    1  UNL1        0.0008
      9 C         138.8776  139.4425  166.4566 C.ar    1  UNL1        0.0030
     10 C         138.4492  138.7573  165.1928 C.ar    1  UNL1        0.0366
     11 C         139.1510  139.0580  163.9017 C.ar    1  UNL1        0.1351
     12 C         140.1627  141.4981  170.2478 C.1     1  UNL1        0.1004
     13 N         140.5911  142.1832  171.5115 N.1     1  UNL1       -0.1908
     14 O         138.7227  138.3728  162.6379 O.3     1  UNL1       -0.4717
     15 C         137.6532  138.9815  161.7802 C.3     1  UNL1        0.2525
     16 C         141.7567  143.5250  160.3390 C.ar    1  UNL1        0.2271
     17 C         141.8776  142.1647  160.9592 C.ar    1  UNL1        0.0540
     18 C         140.8620  141.7050  161.9628 C.ar    1  UNL1       -0.0064
     19 C         139.7254  142.6056  162.3461 C.ar    1  UNL1        0.0540
     20 C         139.6044  143.9660  161.7259 C.ar    1  UNL1        0.2272
     21 N         140.6200  144.4257  160.7223 N.ar    1  UNL1       -0.1767
     22 O         138.4678  144.8666  162.1092 O.3     1  UNL1       -0.4561
     23 C         137.5675  144.4941  163.2496 C.3     1  UNL1        0.2542
     24 O         142.7723  143.9848  159.3354 O.3     1  UNL1       -0.4602
     25 C         141.2581  143.1226  157.4082 C.3     1  UNL1        0.0512
     26 C         142.5214  143.7867  157.8698 C.3     1  UNL1        0.2072
     27 C         141.8058  139.2849  161.9122 C.3     1  UNL1        0.1186
     28 O         140.8757  139.3077  160.7356 O.3     1  UNL1       -0.3819
     29 H         140.4515  138.4404  160.6419 H       1  UNL1        0.2107
     30 C         142.7358  139.2621  163.0888 C.ar    1  UNL1        0.0369
     31 C         142.5244  138.2689  164.1928 C.ar    1  UNL1        0.0010
     32 C         143.4544  138.2461  165.3695 C.ar    1  UNL1       -0.0000
     33 C         144.5959  139.2165  165.4421 C.ar    1  UNL1        0.0031
     34 C         144.8074  140.2097  164.3381 C.ar    1  UNL1        0.0375
     35 C         145.8377  141.2808  164.1354 C.ar    1  UNL1        0.0437
     36 C         145.5444  141.9657  162.8334 C.ar    1  UNL1        0.1796
     37 O         144.3328  141.3177  162.2315 O.2     1  UNL1       -0.4507
     38 C         143.8773  140.2325  163.1615 C.ar    1  UNL1        0.1436
     39 C         142.6285  138.2252  161.2413 C.3     1  UNL1        0.0492
     40 C         143.6422  138.6074  160.2038 C.3     1  UNL1        0.0750
     41 N         143.2234  138.7799  158.7739 N.3     1  UNL1       -0.2702
     42 C         142.5772  137.6430  158.0393 C.3     1  UNL1        0.0897
     43 C         143.4510  140.0894  158.0785 C.3     1  UNL1        0.0897
@<TRIPOS>BOND
     1    25    26    1
     2    26    24    1
     3    24    16    1
     4    16    17   ar
     5    17    18   ar
     6     1    18    1
     7     1     2    1
     8     2     3   ar
     9     3     4   ar
    10     4     5   ar
    11     5     6   ar
    12     6    12    1
    13    12    13    3
    14     6     7   ar
    15     7     8   ar
    16     8     9   ar
    17     9    10   ar
    18    10    11   ar
    19    11    14    1
    20    14    15    1
    21     1    27    1
    22    27    28    1
    23    27    39    1
    24    39    40    1
    25    40    41    1
    26    41    42    1
    27    41    43    1
    28    27    30    1
    29    30    31   ar
    30    31    32   ar
    31    32    33   ar
    32    33    34   ar
    33    34    35   ar
    34    35    36   ar
    35    36    37   ar
    36    37    38   ar
    37    18    19   ar
    38    19    20   ar
    39    20    22    1
    40    22    23    1
    41    20    21   ar
    42    21    16   ar
    43    11     2   ar
    44    38    30   ar
    45     9     4   ar
    46    38    34   ar
    47    28    29    1
@<TRIPOS>MOLECULE
*****
 43 47 0 0 0
SMALL
GASTEIGER

@<TRIPOS>ATOM
      1 C         142.0345  141.2165  162.8476 C.3     1  UNL1        0.0764
      2 C         142.0667  141.4312  164.3318 C.ar    1  UNL1        0.0181
      3 C         140.9576  140.9000  165.1907 C.ar    1  UNL1       -0.0009
      4 C         140.9898  141.1146  166.6750 C.ar    1  UNL1        0.0006
      5 C         139.8807  140.5834  167.5338 C.ar    1  UNL1        0.0103
      6 C         139.9130  140.7981  169.0180 C.ar    1  UNL1        0.0684
      7 C         141.0543  141.5440  169.6433 C.ar    1  UNL1        0.0103
      8 C         142.1634  142.0752  168.7844 C.ar    1  UNL1        0.0008
      9 C         142.1311  141.8605  167.3003 C.ar    1  UNL1        0.0030
     10 C         143.2403  142.3917  166.4413 C.ar    1  UNL1        0.0366
     11 C         143.2080  142.1770  164.9571 C.ar    1  UNL1        0.1351
     12 C         138.8038  140.2669  169.8769 C.1     1  UNL1        0.1004
     13 N         137.6948  139.7357  170.7359 N.1     1  UNL1       -0.1908
     14 O         144.3172  142.7083  164.0982 O.3     1  UNL1       -0.4717
     15 C         144.1852  144.0549  163.4509 C.3     1  UNL1        0.2525
     16 C         140.9058  143.3157  159.6744 C.ar    1  UNL1        0.2271
     17 C         141.6835  142.3793  160.5509 C.ar    1  UNL1        0.0540
     18 C         141.2569  142.1529  161.9710 C.ar    1  UNL1       -0.0064
     19 C         140.0526  142.8630  162.5146 C.ar    1  UNL1        0.0540
     20 C         139.2749  143.7994  161.6381 C.ar    1  UNL1        0.2272
     21 N         139.7015  144.0258  160.2180 N.ar    1  UNL1       -0.1767
     22 O         138.0706  144.5095  162.1817 O.3     1  UNL1       -0.4561
     23 C         137.5892  144.2135  163.5711 C.3     1  UNL1        0.2542
     24 O         141.3325  143.5421  158.2543 O.3     1  UNL1       -0.4602
     25 C         142.1155  145.8535  157.3627 C.3     1  UNL1        0.0512
     26 C         142.4366  144.5103  157.9481 C.3     1  UNL1        0.2072
     27 C         142.7800  140.0654  162.2399 C.3     1  UNL1        0.1186
     28 O         143.8122  141.0148  161.7078 O.3     1  UNL1       -0.3819
     29 H         143.8155  140.9788  160.7385 H       1  UNL1        0.2107
     30 C         141.7477  139.1160  162.7720 C.ar    1  UNL1        0.0369
     31 C         142.0470  138.2851  163.9843 C.ar    1  UNL1        0.0010
     32 C         141.0147  137.3357  164.5164 C.ar    1  UNL1       -0.0000
     33 C         139.6832  137.2173  163.8361 C.ar    1  UNL1        0.0031
     34 C         139.3839  138.0482  162.6237 C.ar    1  UNL1        0.0375
     35 C         138.1694  138.1461  161.7488 C.ar    1  UNL1        0.0437
     36 C         138.4510  139.1560  160.6761 C.ar    1  UNL1        0.1796
     37 O         139.8397  139.6823  160.8879 O.2     1  UNL1       -0.4507
     38 C         140.4161  138.9976  162.0917 C.ar    1  UNL1        0.1436
     39 C         143.5254  138.9143  161.6323 C.3     1  UNL1        0.0492
     40 C         144.2531  139.0941  160.3329 C.3     1  UNL1        0.0750
     41 N         143.4818  139.2169  159.0522 N.3     1  UNL1       -0.2702
     42 C         142.4257  138.2073  158.7130 C.3     1  UNL1        0.0897
     43 C         143.7668  140.3495  158.1107 C.3     1  UNL1        0.0897
@<TRIPOS>BOND
     1    25    26    1
     2    26    24    1
     3    24    16    1
     4    16    17   ar
     5    17    18   ar
     6     1    18    1
     7     1     2    1
     8     2     3   ar
     9     3     4   ar
    10     4     5   ar
    11     5     6   ar
    12     6    12    1
    13    12    13    3
    14     6     7   ar
    15     7     8   ar
    16     8     9   ar
    17     9    10   ar
    18    10    11   ar
    19    11    14    1
    20    14    15    1
    21     1    27    1
    22    27    28    1
    23    27    39    1
    24    39    40    1
    25    40    41    1
    26    41    42    1
    27    41    43    1
    28    27    30    1
    29    30    31   ar
    30    31    32   ar
    31    32    33   ar
    32    33    34   ar
    33    34    35   ar
    34    35    36   ar
    35    36    37   ar
    36    37    38   ar
    37    18    19   ar
    38    19    20   ar
    39    20    22    1
    40    22    23    1
    41    20    21   ar
    42    21    16   ar
    43    11     2   ar
    44    38    30   ar
    45     9     4   ar
    46    38    34   ar
    47    28    29    1
@<TRIPOS>MOLECULE
*****
 43 47 0 0 0
SMALL
GASTEIGER

@<TRIPOS>ATOM
      1 C         142.0572  142.3359  162.3307 C.3     1  UNL1        0.0764
      2 C         142.3086  142.3280  163.8095 C.ar    1  UNL1        0.0181
      3 C         141.2283  141.8861  164.7516 C.ar    1  UNL1       -0.0009
      4 C         141.4798  141.8781  166.2304 C.ar    1  UNL1        0.0006
      5 C         140.3995  141.4362  167.1725 C.ar    1  UNL1        0.0103
      6 C         140.6510  141.4283  168.6512 C.ar    1  UNL1        0.0684
      7 C         141.9827  141.8624  169.1879 C.ar    1  UNL1        0.0103
      8 C         143.0630  142.3043  168.2458 C.ar    1  UNL1        0.0008
      9 C         142.8116  142.3122  166.7670 C.ar    1  UNL1        0.0030
     10 C         143.8919  142.7542  165.8249 C.ar    1  UNL1        0.0366
     11 C         143.6404  142.7621  164.3461 C.ar    1  UNL1        0.1351
     12 C         139.5706  140.9863  169.5934 C.1     1  UNL1        0.1004
     13 N         138.4904  140.5444  170.5356 N.1     1  UNL1       -0.1908
     14 O         144.7207  143.2040  163.4040 O.3     1  UNL1       -0.4717
     15 C         145.6658  142.1958  162.8206 C.3     1  UNL1        0.2525
     16 C         142.1233  138.5457  161.1562 C.ar    1  UNL1        0.2271
     17 C         141.8391  139.7720  161.9718 C.ar    1  UNL1        0.0540
     18 C         142.3414  141.1096  161.5151 C.ar    1  UNL1       -0.0064
     19 C         143.1279  141.2208  160.2427 C.ar    1  UNL1        0.0540
     20 C         143.4121  139.9945  159.4270 C.ar    1  UNL1        0.2272
     21 N         142.9098  138.6569  159.8837 N.ar    1  UNL1       -0.1767
     22 O         144.1986  140.1057  158.1546 O.3     1  UNL1       -0.4561
     23 C         144.8240  141.4142  157.7714 C.3     1  UNL1        0.2542
     24 O         141.6210  137.2081  161.6129 O.3     1  UNL1       -0.4602
     25 C         141.2881  137.0058  164.1816 C.3     1  UNL1        0.0512
     26 C         140.7107  137.1148  162.8015 C.3     1  UNL1        0.2072
     27 C         141.5216  143.5702  161.6676 C.3     1  UNL1        0.1186
     28 O         142.9176  143.9800  161.3028 O.3     1  UNL1       -0.3819
     29 H         143.1322  144.8198  161.7382 H       1  UNL1        0.2107
     30 C         140.1255  143.1603  162.0325 C.ar    1  UNL1        0.0369
     31 C         139.4014  142.1426  161.2019 C.ar    1  UNL1        0.0010
     32 C         138.0054  141.7327  161.5668 C.ar    1  UNL1       -0.0000
     33 C         137.3334  142.3406  162.7621 C.ar    1  UNL1        0.0031
     34 C         138.0575  143.3584  163.5926 C.ar    1  UNL1        0.0375
     35 C         137.6548  144.1244  164.8178 C.ar    1  UNL1        0.0437
     36 C         138.8019  145.0077  165.2102 C.ar    1  UNL1        0.1796
     37 O         139.9137  144.7876  164.2275 O.2     1  UNL1       -0.4507
     38 C         139.4536  143.7682  163.2278 C.ar    1  UNL1        0.1436
     39 C         140.9859  144.8045  161.0046 C.3     1  UNL1        0.0492
     40 C         141.5193  145.2297  159.6686 C.3     1  UNL1        0.0750
     41 N         141.2530  144.3916  158.4534 N.3     1  UNL1       -0.2702
     42 C         139.8532  143.9579  158.1335 C.3     1  UNL1        0.0897
     43 C         142.3867  143.9872  157.5581 C.3     1  UNL1        0.0897
@<TRIPOS>BOND
     1    25    26    1
     2    26    24    1
     3    24    16    1
     4    16    17   ar
     5    17    18   ar
     6     1    18    1
     7     1     2    1
     8     2     3   ar
     9     3     4   ar
    10     4     5   ar
    11     5     6   ar
    12     6    12    1
    13    12    13    3
    14     6     7   ar
    15     7     8   ar
    16     8     9   ar
    17     9    10   ar
    18    10    11   ar
    19    11    14    1
    20    14    15    1
    21     1    27    1
    22    27    28    1
    23    27    39    1
    24    39    40    1
    25    40    41    1
    26    41    42    1
    27    41    43    1
    28    27    30    1
    29    30    31   ar
    30    31    32   ar
    31    32    33   ar
    32    33    34   ar
    33    34    35   ar
    34    35    36   ar
    35    36    37   ar
    36    37    38   ar
    37    18    19   ar
    38    19    20   ar
    39    20    22    1
    40    22    23    1
    41    20    21   ar
    42    21    16   ar
    43    11     2   ar
    44    38    30   ar
    45     9     4   ar
    46    38    34   ar
    47    28    29    1
