@<TRIPOS>MOLECULE
*****
 23 25 0 0 0
SMALL
GASTEIGER

@<TRIPOS>ATOM
      1 N         139.5907  142.6514  165.6628 N.ar    1  UNL1       -0.2076
      2 C         138.9697  141.4908  164.9435 C.ar    1  UNL1        0.1378
      3 C         137.9026  142.0255  164.0351 C.ar    1  UNL1        0.1713
      4 N         137.8640  143.5167  164.1929 N.ar    1  UNL1       -0.1135
      5 N         138.9073  143.9035  165.1989 N.ar    1  UNL1       -0.0583
      6 CL        144.0287  142.3403  169.6886 Cl      1  UNL1       -0.0814
      7 C         142.9192  142.4180  168.6821 C.ar    1  UNL1        0.0683
      8 C         143.2229  142.2852  167.2193 C.ar    1  UNL1        0.0138
      9 C         142.1134  142.3630  166.2128 C.ar    1  UNL1        0.0201
     10 C         140.7002  142.5736  166.6693 C.ar    1  UNL1        0.0854
     11 C         140.3965  142.7065  168.1321 C.ar    1  UNL1        0.0314
     12 C         141.5060  142.6287  169.1386 C.ar    1  UNL1        0.0697
     13 CL        141.2022  142.7616  170.6015 Cl      1  UNL1       -0.0813
     14 N         137.0277  141.2120  163.1281 N.pl3   1  UNL1       -0.3142
     15 H         136.0673  141.1192  163.3237 H       1  UNL1        0.1483
     16 C         137.6161  140.5397  161.9232 C.3     1  UNL1        0.1058
     17 C         137.7919  139.0502  161.9064 C.3     1  UNL1        0.0936
     18 N         138.9362  138.4217  162.6452 N.3     1  UNL1       -0.2712
     19 C         138.7870  138.0630  164.0940 C.3     1  UNL1        0.0721
     20 C         139.9313  137.4345  164.8327 C.3     1  UNL1        0.0174
     21 C         141.2247  137.1647  164.1226 C.3     1  UNL1        0.0029
     22 C         141.3738  137.5234  162.6738 C.3     1  UNL1        0.0174
     23 C         140.2296  138.1519  161.9351 C.3     1  UNL1        0.0721
@<TRIPOS>BOND
     1     6     7    1
     2     7     8   ar
     3     8     9   ar
     4     9    10   ar
     5    10     1    1
     6     1     2   ar
     7     2     3   ar
     8     3    14    1
     9    14    16    1
    10    16    17    1
    11    17    18    1
    12    18    19    1
    13    19    20    1
    14    20    21    1
    15    21    22    1
    16    22    23    1
    17     3     4   ar
    18     4     5   ar
    19    10    11   ar
    20    11    12   ar
    21    12    13    1
    22    12     7   ar
    23     5     1   ar
    24    23    18    1
    25    14    15    1
@<TRIPOS>MOLECULE
*****
 23 25 0 0 0
SMALL
GASTEIGER

@<TRIPOS>ATOM
      1 N         143.4001  142.7138  163.4469 N.ar    1  UNL1       -0.2076
      2 C         142.5197  142.8920  162.2456 C.ar    1  UNL1        0.1378
      3 C         142.6871  144.2989  161.7528 C.ar    1  UNL1        0.1713
      4 N         143.6708  144.9902  162.6497 N.ar    1  UNL1       -0.1135
      5 N         144.1114  144.0105  163.6967 N.ar    1  UNL1       -0.0583
      6 CL        143.9748  137.6953  166.6848 Cl      1  UNL1       -0.0814
      7 C         143.8311  138.9499  165.8754 C.ar    1  UNL1        0.0683
      8 C         144.7241  139.1864  164.6936 C.ar    1  UNL1        0.0138
      9 C         144.5804  140.4410  163.8841 C.ar    1  UNL1        0.0201
     10 C         143.5437  141.4592  164.2564 C.ar    1  UNL1        0.0854
     11 C         142.6508  141.2227  165.4382 C.ar    1  UNL1        0.0314
     12 C         142.7945  139.9681  166.2477 C.ar    1  UNL1        0.0697
     13 CL        141.9015  139.7316  167.4295 Cl      1  UNL1       -0.0813
     14 N         141.9926  144.9075  160.5708 N.pl3   1  UNL1       -0.3142
     15 H         142.4522  144.9570  159.7016 H       1  UNL1        0.1483
     16 C         140.5978  145.4408  160.7132 C.3     1  UNL1        0.1058
     17 C         140.0689  145.8049  162.0687 C.3     1  UNL1        0.0936
     18 N         139.3015  144.7955  162.8704 N.3     1  UNL1       -0.2712
     19 C         139.3107  144.8640  164.3687 C.3     1  UNL1        0.0721
     20 C         138.5434  143.8546  165.1702 C.3     1  UNL1        0.0174
     21 C         137.7670  142.7768  164.4734 C.3     1  UNL1        0.0029
     22 C         137.7579  142.7084  162.9750 C.3     1  UNL1        0.0174
     23 C         138.5252  143.7178  162.1735 C.3     1  UNL1        0.0721
@<TRIPOS>BOND
     1     6     7    1
     2     7     8   ar
     3     8     9   ar
     4     9    10   ar
     5    10     1    1
     6     1     2   ar
     7     2     3   ar
     8     3    14    1
     9    14    16    1
    10    16    17    1
    11    17    18    1
    12    18    19    1
    13    19    20    1
    14    20    21    1
    15    21    22    1
    16    22    23    1
    17     3     4   ar
    18     4     5   ar
    19    10    11   ar
    20    11    12   ar
    21    12    13    1
    22    12     7   ar
    23     5     1   ar
    24    23    18    1
    25    14    15    1
@<TRIPOS>MOLECULE
*****
 23 25 0 0 0
SMALL
GASTEIGER

@<TRIPOS>ATOM
      1 N         143.1783  143.0931  164.2238 N.ar    1  UNL1       -0.2076
      2 C         142.3868  143.1168  162.9498 C.ar    1  UNL1        0.1378
      3 C         142.8472  144.2924  162.1399 C.ar    1  UNL1        0.1713
      4 N         143.9232  144.9953  162.9133 N.ar    1  UNL1       -0.1135
      5 N         144.1278  144.2541  164.2012 N.ar    1  UNL1       -0.0583
      6 CL        142.6405  139.0622  168.6354 Cl      1  UNL1       -0.0814
      7 C         142.7750  140.0699  167.5325 C.ar    1  UNL1        0.0683
      8 C         142.6567  141.5341  167.8359 C.ar    1  UNL1        0.0138
      9 C         142.7912  142.5418  166.7330 C.ar    1  UNL1        0.0201
     10 C         143.0439  142.0854  165.3267 C.ar    1  UNL1        0.0854
     11 C         143.1621  140.6212  165.0233 C.ar    1  UNL1        0.0314
     12 C         143.0276  139.6135  166.1262 C.ar    1  UNL1        0.0697
     13 CL        143.1459  138.1492  165.8228 Cl      1  UNL1       -0.0813
     14 N         142.3235  144.6945  160.7930 N.pl3   1  UNL1       -0.3142
     15 H         142.9206  144.6870  160.0104 H       1  UNL1        0.1483
     16 C         140.8899  145.1081  160.6387 C.3     1  UNL1        0.1058
     17 C         140.1496  145.6963  161.8031 C.3     1  UNL1        0.0936
     18 N         139.3509  144.8078  162.7103 N.3     1  UNL1       -0.2712
     19 C         138.5025  143.7142  162.1324 C.3     1  UNL1        0.0721
     20 C         137.7039  142.8257  163.0396 C.3     1  UNL1        0.0174
     21 C         137.7539  143.0309  164.5246 C.3     1  UNL1        0.0029
     22 C         138.6024  144.1245  165.1025 C.3     1  UNL1        0.0174
     23 C         139.4010  145.0130  164.1954 C.3     1  UNL1        0.0721
@<TRIPOS>BOND
     1     6     7    1
     2     7     8   ar
     3     8     9   ar
     4     9    10   ar
     5    10     1    1
     6     1     2   ar
     7     2     3   ar
     8     3    14    1
     9    14    16    1
    10    16    17    1
    11    17    18    1
    12    18    19    1
    13    19    20    1
    14    20    21    1
    15    21    22    1
    16    22    23    1
    17     3     4   ar
    18     4     5   ar
    19    10    11   ar
    20    11    12   ar
    21    12    13    1
    22    12     7   ar
    23     5     1   ar
    24    23    18    1
    25    14    15    1
@<TRIPOS>MOLECULE
*****
 23 25 0 0 0
SMALL
GASTEIGER

@<TRIPOS>ATOM
      1 N         143.4106  142.5666  164.6569 N.ar    1  UNL1       -0.2076
      2 C         142.4295  143.5026  164.0156 C.ar    1  UNL1        0.1378
      3 C         143.0951  144.1279  162.8256 C.ar    1  UNL1        0.1713
      4 N         144.4877  143.5783  162.7315 N.ar    1  UNL1       -0.1135
      5 N         144.6826  142.6135  163.8634 N.ar    1  UNL1       -0.0583
      6 CL        142.4209  139.2228  169.5394 Cl      1  UNL1       -0.0814
      7 C         142.6683  140.0587  168.3188 C.ar    1  UNL1        0.0683
      8 C         142.6074  139.4336  166.9567 C.ar    1  UNL1        0.0138
      9 C         142.8548  140.2696  165.7361 C.ar    1  UNL1        0.0201
     10 C         143.1632  141.7307  165.8776 C.ar    1  UNL1        0.0854
     11 C         143.2241  142.3558  167.2397 C.ar    1  UNL1        0.0314
     12 C         142.9767  141.5198  168.4603 C.ar    1  UNL1        0.0697
     13 CL        143.0377  142.1450  169.8225 Cl      1  UNL1       -0.0813
     14 N         142.4768  145.1272  161.8934 N.pl3   1  UNL1       -0.3142
     15 H         142.7633  146.0687  161.9205 H       1  UNL1        0.1483
     16 C         141.4218  144.6920  160.9200 C.3     1  UNL1        0.1058
     17 C         139.9884  145.0700  161.1489 C.3     1  UNL1        0.0936
     18 N         139.1973  144.3925  162.2285 N.3     1  UNL1       -0.2712
     19 C         138.4287  143.1414  161.9223 C.3     1  UNL1        0.0721
     20 C         137.6377  142.4640  163.0020 C.3     1  UNL1        0.0174
     21 C         137.6155  143.0377  164.3877 C.3     1  UNL1        0.0029
     22 C         138.3842  144.2888  164.6938 C.3     1  UNL1        0.0174
     23 C         139.1751  144.9662  163.6143 C.3     1  UNL1        0.0721
@<TRIPOS>BOND
     1     6     7    1
     2     7     8   ar
     3     8     9   ar
     4     9    10   ar
     5    10     1    1
     6     1     2   ar
     7     2     3   ar
     8     3    14    1
     9    14    16    1
    10    16    17    1
    11    17    18    1
    12    18    19    1
    13    19    20    1
    14    20    21    1
    15    21    22    1
    16    22    23    1
    17     3     4   ar
    18     4     5   ar
    19    10    11   ar
    20    11    12   ar
    21    12    13    1
    22    12     7   ar
    23     5     1   ar
    24    23    18    1
    25    14    15    1
@<TRIPOS>MOLECULE
*****
 23 25 0 0 0
SMALL
GASTEIGER

@<TRIPOS>ATOM
      1 N         139.5405  139.2674  165.1022 N.ar    1  UNL1       -0.2076
      2 C         138.8288  140.3125  164.2952 C.ar    1  UNL1        0.1378
      3 C         138.2509  139.6470  163.0814 C.ar    1  UNL1        0.1713
      4 N         138.6054  138.1906  163.1383 N.ar    1  UNL1       -0.1135
      5 N         139.4024  137.9560  164.3872 N.ar    1  UNL1       -0.0583
      6 CL        142.4319  140.1735  170.2809 Cl      1  UNL1       -0.0814
      7 C         141.7091  139.9470  168.9862 C.ar    1  UNL1        0.0683
      8 C         142.4773  139.5699  167.7543 C.ar    1  UNL1        0.0138
      9 C         141.7544  139.3434  166.4596 C.ar    1  UNL1        0.0201
     10 C         140.2634  139.4939  166.3968 C.ar    1  UNL1        0.0854
     11 C         139.4951  139.8710  167.6288 C.ar    1  UNL1        0.0314
     12 C         140.2180  140.0975  168.9234 C.ar    1  UNL1        0.0697
     13 CL        139.4497  140.4745  170.1554 Cl      1  UNL1       -0.0813
     14 N         137.4577  140.3198  162.0006 N.pl3   1  UNL1       -0.3142
     15 H         136.4754  140.2547  161.9978 H       1  UNL1        0.1483
     16 C         138.1613  141.0918  160.9240 C.3     1  UNL1        0.1058
     17 C         138.2641  142.5853  161.0173 C.3     1  UNL1        0.0936
     18 N         138.6768  143.2296  162.3076 N.3     1  UNL1       -0.2712
     19 C         140.1320  143.3935  162.6321 C.3     1  UNL1        0.0721
     20 C         140.5447  144.0378  163.9224 C.3     1  UNL1        0.0174
     21 C         139.5022  144.5180  164.8880 C.3     1  UNL1        0.0029
     22 C         138.0469  144.3539  164.5634 C.3     1  UNL1        0.0174
     23 C         137.6343  143.7098  163.2732 C.3     1  UNL1        0.0721
@<TRIPOS>BOND
     1     6     7    1
     2     7     8   ar
     3     8     9   ar
     4     9    10   ar
     5    10     1    1
     6     1     2   ar
     7     2     3   ar
     8     3    14    1
     9    14    16    1
    10    16    17    1
    11    17    18    1
    12    18    19    1
    13    19    20    1
    14    20    21    1
    15    21    22    1
    16    22    23    1
    17     3     4   ar
    18     4     5   ar
    19    10    11   ar
    20    11    12   ar
    21    12    13    1
    22    12     7   ar
    23     5     1   ar
    24    23    18    1
    25    14    15    1
@<TRIPOS>MOLECULE
*****
 23 25 0 0 0
SMALL
GASTEIGER

@<TRIPOS>ATOM
      1 N         140.0465  139.4679  165.8399 N.ar    1  UNL1       -0.2076
      2 C         141.1428  138.9869  164.9362 C.ar    1  UNL1        0.1378
      3 C         140.5928  137.8769  164.0904 C.ar    1  UNL1        0.1713
      4 N         139.1566  137.6719  164.4713 N.ar    1  UNL1       -0.1135
      5 N         138.8190  138.6552  165.5526 N.ar    1  UNL1       -0.0583
      6 CL        140.4931  143.8698  169.8925 Cl      1  UNL1       -0.0814
      7 C         140.3815  142.7693  168.8794 C.ar    1  UNL1        0.0683
      8 C         140.3303  143.0987  167.4169 C.ar    1  UNL1        0.0138
      9 C         140.2187  141.9982  166.4038 C.ar    1  UNL1        0.0201
     10 C         140.1582  140.5684  166.8531 C.ar    1  UNL1        0.0854
     11 C         140.2093  140.2391  168.3156 C.ar    1  UNL1        0.0314
     12 C         140.3210  141.3395  169.3287 C.ar    1  UNL1        0.0697
     13 CL        140.3721  141.0101  170.7913 Cl      1  UNL1       -0.0813
     14 N         141.3468  137.1071  163.0468 N.pl3   1  UNL1       -0.3142
     15 H         141.4873  136.1387  163.1551 H       1  UNL1        0.1483
     16 C         141.8866  137.8128  161.8383 C.3     1  UNL1        0.1058
     17 C         143.3658  138.0049  161.6803 C.3     1  UNL1        0.0936
     18 N         144.0289  139.2239  162.2504 N.3     1  UNL1       -0.2712
     19 C         144.2048  140.4480  161.4017 C.3     1  UNL1        0.0721
     20 C         144.8678  141.6668  161.9718 C.3     1  UNL1        0.0174
     21 C         145.3548  141.6614  163.3904 C.3     1  UNL1        0.0029
     22 C         145.1789  140.4372  164.2391 C.3     1  UNL1        0.0174
     23 C         144.5159  139.2184  163.6691 C.3     1  UNL1        0.0721
@<TRIPOS>BOND
     1     6     7    1
     2     7     8   ar
     3     8     9   ar
     4     9    10   ar
     5    10     1    1
     6     1     2   ar
     7     2     3   ar
     8     3    14    1
     9    14    16    1
    10    16    17    1
    11    17    18    1
    12    18    19    1
    13    19    20    1
    14    20    21    1
    15    21    22    1
    16    22    23    1
    17     3     4   ar
    18     4     5   ar
    19    10    11   ar
    20    11    12   ar
    21    12    13    1
    22    12     7   ar
    23     5     1   ar
    24    23    18    1
    25    14    15    1
@<TRIPOS>MOLECULE
*****
 23 25 0 0 0
SMALL
GASTEIGER

@<TRIPOS>ATOM
      1 N         139.4911  141.7787  165.9815 N.ar    1  UNL1       -0.2076
      2 C         138.5936  140.8632  165.2030 C.ar    1  UNL1        0.1378
      3 C         138.0066  141.6459  164.0659 C.ar    1  UNL1        0.1713
      4 N         138.5415  143.0452  164.1417 N.ar    1  UNL1       -0.1135
      5 N         139.4589  143.1273  165.3256 N.ar    1  UNL1       -0.0583
      6 CL        142.6547  140.3053  170.8622 Cl      1  UNL1       -0.0814
      7 C         141.8638  140.6737  169.6420 C.ar    1  UNL1        0.0683
      8 C         140.5818  139.9581  169.3350 C.ar    1  UNL1        0.0138
      9 C         139.7909  140.3264  168.1148 C.ar    1  UNL1        0.0201
     10 C         140.2820  141.4104  167.2017 C.ar    1  UNL1        0.0854
     11 C         141.5640  142.1260  167.5087 C.ar    1  UNL1        0.0314
     12 C         142.3549  141.7576  168.7289 C.ar    1  UNL1        0.0697
     13 CL        143.6370  142.4732  169.0359 Cl      1  UNL1       -0.0813
     14 N         137.0524  141.1213  163.0343 N.pl3   1  UNL1       -0.3142
     15 H         136.0825  141.2373  163.1567 H       1  UNL1        0.1483
     16 C         137.5761  140.4202  161.8160 C.3     1  UNL1        0.1058
     17 C         137.7640  138.9320  161.8299 C.3     1  UNL1        0.0936
     18 N         138.9489  138.3322  162.5274 N.3     1  UNL1       -0.2712
     19 C         138.8174  137.8355  163.9365 C.3     1  UNL1        0.0721
     20 C         140.0024  137.2356  164.6339 C.3     1  UNL1        0.0174
     21 C         141.3187  137.1326  163.9221 C.3     1  UNL1        0.0029
     22 C         141.4501  137.6295  162.5128 C.3     1  UNL1        0.0174
     23 C         140.2652  138.2292  161.8155 C.3     1  UNL1        0.0721
@<TRIPOS>BOND
     1     6     7    1
     2     7     8   ar
     3     8     9   ar
     4     9    10   ar
     5    10     1    1
     6     1     2   ar
     7     2     3   ar
     8     3    14    1
     9    14    16    1
    10    16    17    1
    11    17    18    1
    12    18    19    1
    13    19    20    1
    14    20    21    1
    15    21    22    1
    16    22    23    1
    17     3     4   ar
    18     4     5   ar
    19    10    11   ar
    20    11    12   ar
    21    12    13    1
    22    12     7   ar
    23     5     1   ar
    24    23    18    1
    25    14    15    1
@<TRIPOS>MOLECULE
*****
 23 25 0 0 0
SMALL
GASTEIGER

@<TRIPOS>ATOM
      1 N         140.8241  142.6493  164.2028 N.ar    1  UNL1       -0.2076
      2 C         141.3889  142.5705  162.8155 C.ar    1  UNL1        0.1378
      3 C         142.1059  143.8574  162.5330 C.ar    1  UNL1        0.1713
      4 N         141.9844  144.7316  163.7458 N.ar    1  UNL1       -0.1135
      5 N         141.1922  143.9850  164.7778 N.ar    1  UNL1       -0.0583
      6 CL        137.6503  138.3731  166.9671 Cl      1  UNL1       -0.0814
      7 C         138.4438  139.4422  166.2760 C.ar    1  UNL1        0.0683
      8 C         138.2495  139.6908  164.8096 C.ar    1  UNL1        0.0138
      9 C         139.0429  140.7599  164.1186 C.ar    1  UNL1        0.0201
     10 C         140.0307  141.5803  164.8939 C.ar    1  UNL1        0.0854
     11 C         140.2250  141.3316  166.3603 C.ar    1  UNL1        0.0314
     12 C         139.4315  140.2626  167.0513 C.ar    1  UNL1        0.0697
     13 CL        139.6259  140.0140  168.5178 Cl      1  UNL1       -0.0813
     14 N         142.8193  144.2084  161.2610 N.pl3   1  UNL1       -0.3142
     15 H         143.0581  145.1447  161.0728 H       1  UNL1        0.1483
     16 C         143.1689  143.1327  160.2758 C.3     1  UNL1        0.1058
     17 C         144.4319  142.3415  160.4459 C.3     1  UNL1        0.0936
     18 N         144.6215  141.4838  161.6619 N.3     1  UNL1       -0.2712
     19 C         145.4003  142.0049  162.8331 C.3     1  UNL1        0.0721
     20 C         145.5899  141.1471  164.0491 C.3     1  UNL1        0.0174
     21 C         145.0008  139.7684  164.0937 C.3     1  UNL1        0.0029
     22 C         144.2220  139.2474  162.9223 C.3     1  UNL1        0.0174
     23 C         144.0324  140.1051  161.7064 C.3     1  UNL1        0.0721
@<TRIPOS>BOND
     1     6     7    1
     2     7     8   ar
     3     8     9   ar
     4     9    10   ar
     5    10     1    1
     6     1     2   ar
     7     2     3   ar
     8     3    14    1
     9    14    16    1
    10    16    17    1
    11    17    18    1
    12    18    19    1
    13    19    20    1
    14    20    21    1
    15    21    22    1
    16    22    23    1
    17     3     4   ar
    18     4     5   ar
    19    10    11   ar
    20    11    12   ar
    21    12    13    1
    22    12     7   ar
    23     5     1   ar
    24    23    18    1
    25    14    15    1
@<TRIPOS>MOLECULE
*****
 23 25 0 0 0
SMALL
GASTEIGER

@<TRIPOS>ATOM
      1 N         140.5378  138.4782  164.5100 N.ar    1  UNL1       -0.2076
      2 C         141.8155  138.3316  163.7380 C.ar    1  UNL1        0.1378
      3 C         141.4882  137.7063  162.4144 C.ar    1  UNL1        0.1713
      4 N         140.0082  137.4664  162.3683 N.ar    1  UNL1       -0.1135
      5 N         139.4208  137.9435  163.6635 N.ar    1  UNL1       -0.0583
      6 CL        139.9907  140.7963  170.0170 Cl      1  UNL1       -0.0814
      7 C         140.1275  140.2167  168.6403 C.ar    1  UNL1        0.0683
      8 C         138.9080  139.7691  167.8904 C.ar    1  UNL1        0.0138
      9 C         139.0447  139.1895  166.5137 C.ar    1  UNL1        0.0201
     10 C         140.4010  139.0577  165.8867 C.ar    1  UNL1        0.0854
     11 C         141.6205  139.5054  166.6366 C.ar    1  UNL1        0.0314
     12 C         141.4838  140.0849  168.0133 C.ar    1  UNL1        0.0697
     13 CL        142.7034  140.5326  168.7632 Cl      1  UNL1       -0.0813
     14 N         142.4688  137.3785  161.3276 N.pl3   1  UNL1       -0.3142
     15 H         142.1940  136.8111  160.5714 H       1  UNL1        0.1483
     16 C         143.8679  137.9151  161.3931 C.3     1  UNL1        0.1058
     17 C         144.1686  139.2905  160.8755 C.3     1  UNL1        0.0936
     18 N         144.4329  140.4121  161.8360 N.3     1  UNL1       -0.2712
     19 C         144.3323  141.8352  161.3731 C.3     1  UNL1        0.0721
     20 C         144.5966  142.9567  162.3337 C.3     1  UNL1        0.0174
     21 C         144.9614  142.6550  163.7569 C.3     1  UNL1        0.0029
     22 C         145.0619  141.2317  164.2198 C.3     1  UNL1        0.0174
     23 C         144.7977  140.1103  163.2593 C.3     1  UNL1        0.0721
@<TRIPOS>BOND
     1     6     7    1
     2     7     8   ar
     3     8     9   ar
     4     9    10   ar
     5    10     1    1
     6     1     2   ar
     7     2     3   ar
     8     3    14    1
     9    14    16    1
    10    16    17    1
    11    17    18    1
    12    18    19    1
    13    19    20    1
    14    20    21    1
    15    21    22    1
    16    22    23    1
    17     3     4   ar
    18     4     5   ar
    19    10    11   ar
    20    11    12   ar
    21    12    13    1
    22    12     7   ar
    23     5     1   ar
    24    23    18    1
    25    14    15    1
