@<TRIPOS>MOLECULE
*****
 34 37 0 0 0
SMALL
GASTEIGER

@<TRIPOS>ATOM
      1 C         141.4865  140.6095  166.9036 C.ar    1  UNL1        0.0207
      2 C         140.5001  140.9330  165.8208 C.ar    1  UNL1        0.0219
      3 C         140.4725  139.7814  164.8600 C.ar    1  UNL1        0.0961
      4 C         139.6899  139.5417  163.6030 C.ar    1  UNL1        0.0685
      5 C         139.8767  138.2667  162.8350 C.ar    1  UNL1        0.0885
      6 C         140.8459  137.2317  163.3239 C.ar    1  UNL1        0.1263
      7 N         141.6285  137.4715  164.5809 N.ar    1  UNL1       -0.1633
      8 N         141.4418  138.7463  165.3490 N.ar    1  UNL1       -0.2270
      9 C         142.0685  139.2581  166.6120 C.ar    1  UNL1        0.1004
     10 C         140.2380  144.4535  170.1693 C.3     1  UNL1        0.0310
     11 C         141.2063  143.4060  169.7057 C.ar    1  UNL1       -0.0218
     12 C         142.5186  143.2329  170.4112 C.ar    1  UNL1       -0.0043
     13 C         143.4870  142.1853  169.9476 C.ar    1  UNL1       -0.0003
     14 C         143.1428  141.3109  168.7783 C.ar    1  UNL1        0.0000
     15 C         141.8305  141.4840  168.0728 C.ar    1  UNL1        0.0012
     16 C         140.8622  142.5315  168.5365 C.ar    1  UNL1       -0.0042
     17 C         139.0941  138.0270  161.5779 C.2     1  UNL1        0.2456
     18 N         137.6801  137.5326  161.6575 N.am    1  UNL1       -0.3252
     19 O         139.7255  138.2816  160.2413 O.2     1  UNL1       -0.2703
     20 H         137.2658  137.3655  162.5347 H       1  UNL1        0.1453
     21 H         137.1665  137.3752  160.8324 H       1  UNL1        0.1453
     22 N         138.7206  140.5767  163.1139 N.pl3   1  UNL1       -0.3327
     23 H         137.7520  140.4263  163.2055 H       1  UNL1        0.1468
     24 C         139.2272  141.8410  162.4854 C.3     1  UNL1        0.0702
     25 C         140.4086  141.9579  161.5687 C.3     1  UNL1        0.0208
     26 C         140.5529  143.3994  161.1799 C.3     1  UNL1        0.0160
     27 C         139.4606  144.1735  161.8565 C.3     1  UNL1        0.0404
     28 C         140.0785  145.3499  161.1607 C.3     1  UNL1        0.0156
     29 N         138.4974  145.1934  162.3875 N.3     1  UNL1       -0.3231
     30 C         138.6412  143.2103  162.6633 C.3     1  UNL1        0.0282
     31 C         137.8493  144.4316  163.0257 C.3     1  UNL1        0.0029
     32 C         137.6564  142.5024  163.5458 C.3     1  UNL1        0.0029
     33 H         138.7424  146.1142  162.0235 H       1  UNL1        0.1188
     34 H         138.5442  145.2071  163.4063 H       1  UNL1        0.1188
@<TRIPOS>BOND
     1    10    11    1
     2    11    12   ar
     3    12    13   ar
     4    13    14   ar
     5    14    15   ar
     6    15     1    1
     7     1     2   ar
     8     2     3   ar
     9     3     4   ar
    10     4    22    1
    11    24    22    1
    12    24    25    1
    13    25    26    1
    14    26    27    1
    15    27    28    1
    16    27    29    1
    17    27    30    1
    18    30    31    1
    19    30    32    1
    20     4     5   ar
    21     5    17    1
    22    17    18   am
    23    17    19    2
    24     5     6   ar
    25     6     7   ar
    26     7     8   ar
    27     8     9   ar
    28    15    16   ar
    29    16    11   ar
    30     9     1   ar
    31     8     3   ar
    32    30    24    1
    33    22    23    1
    34    29    33    1
    35    29    34    1
    36    18    20    1
    37    18    21    1
@<TRIPOS>MOLECULE
*****
 34 37 0 0 0
SMALL
GASTEIGER

@<TRIPOS>ATOM
      1 C         140.5620  140.2576  166.2302 C.ar    1  UNL1        0.0207
      2 C         141.2502  141.0521  165.1601 C.ar    1  UNL1        0.0219
      3 C         141.4416  140.1589  163.9703 C.ar    1  UNL1        0.0961
      4 C         142.0612  140.3977  162.6253 C.ar    1  UNL1        0.0685
      5 C         142.1108  139.2899  161.6151 C.ar    1  UNL1        0.0885
      6 C         141.5409  137.9435  161.9499 C.ar    1  UNL1        0.1263
      7 N         140.9213  137.7047  163.2948 N.ar    1  UNL1       -0.1633
      8 N         140.8716  138.8123  164.3051 N.ar    1  UNL1       -0.2270
      9 C         140.3280  138.8734  165.7018 C.ar    1  UNL1        0.1004
     10 C         140.6310  144.0015  169.8327 C.3     1  UNL1        0.0310
     11 C         140.2101  142.6311  169.3912 C.ar    1  UNL1       -0.0218
     12 C         139.4027  141.7624  170.3096 C.ar    1  UNL1       -0.0043
     13 C         138.9818  140.3920  169.8682 C.ar    1  UNL1       -0.0003
     14 C         139.3682  139.8905  168.5083 C.ar    1  UNL1        0.0000
     15 C         140.1756  140.7592  167.5900 C.ar    1  UNL1        0.0012
     16 C         140.5965  142.1296  168.0314 C.ar    1  UNL1       -0.0042
     17 C         142.7304  139.5288  160.2700 C.2     1  UNL1        0.2456
     18 N         144.0042  138.8303  159.8963 N.am    1  UNL1       -0.3252
     19 O         142.0763  140.4661  159.2987 O.2     1  UNL1       -0.2703
     20 H         144.4335  138.2151  160.5339 H       1  UNL1        0.1453
     21 H         144.4109  138.9870  159.0136 H       1  UNL1        0.1453
     22 N         142.6312  141.7442  162.2904 N.pl3   1  UNL1       -0.3327
     23 H         143.6061  141.8629  162.2218 H       1  UNL1        0.1468
     24 C         141.7157  142.9099  162.0601 C.3     1  UNL1        0.0702
     25 C         140.5730  142.9552  161.0896 C.3     1  UNL1        0.0208
     26 C         139.9332  144.3082  161.1895 C.3     1  UNL1        0.0160
     27 C         140.6806  145.0992  162.2219 C.3     1  UNL1        0.0404
     28 C         139.6920  146.1758  161.8849 C.3     1  UNL1        0.0156
     29 N         141.2213  146.1152  163.1838 N.3     1  UNL1       -0.3231
     30 C         141.7822  144.2350  162.7600 C.3     1  UNL1        0.0282
     31 C         142.0926  145.4317  163.6095 C.3     1  UNL1        0.0029
     32 C         142.9487  143.6209  163.4756 C.3     1  UNL1        0.0029
     33 H         140.6701  146.9710  163.1198 H       1  UNL1        0.1188
     34 H         142.1936  146.3188  162.9524 H       1  UNL1        0.1188
@<TRIPOS>BOND
     1    10    11    1
     2    11    12   ar
     3    12    13   ar
     4    13    14   ar
     5    14    15   ar
     6    15     1    1
     7     1     2   ar
     8     2     3   ar
     9     3     4   ar
    10     4    22    1
    11    24    22    1
    12    24    25    1
    13    25    26    1
    14    26    27    1
    15    27    28    1
    16    27    29    1
    17    27    30    1
    18    30    31    1
    19    30    32    1
    20     4     5   ar
    21     5    17    1
    22    17    18   am
    23    17    19    2
    24     5     6   ar
    25     6     7   ar
    26     7     8   ar
    27     8     9   ar
    28    15    16   ar
    29    16    11   ar
    30     9     1   ar
    31     8     3   ar
    32    30    24    1
    33    22    23    1
    34    29    33    1
    35    29    34    1
    36    18    20    1
    37    18    21    1
@<TRIPOS>MOLECULE
*****
 34 37 0 0 0
SMALL
GASTEIGER

@<TRIPOS>ATOM
      1 C         140.1110  140.3541  166.9042 C.ar    1  UNL1        0.0207
      2 C         140.7292  140.9137  165.6574 C.ar    1  UNL1        0.0219
      3 C         140.3155  140.0464  164.5055 C.ar    1  UNL1        0.0961
      4 C         140.6216  140.1128  163.0386 C.ar    1  UNL1        0.0685
      5 C         140.0539  139.0835  162.1067 C.ar    1  UNL1        0.0885
      6 C         139.1801  137.9880  162.6417 C.ar    1  UNL1        0.1263
      7 N         138.8740  137.9216  164.1086 N.ar    1  UNL1       -0.1633
      8 N         139.4417  138.9508  165.0405 N.ar    1  UNL1       -0.2270
      9 C         139.3154  139.1410  166.5230 C.ar    1  UNL1        0.1004
     10 C         140.4297  144.4345  170.1055 C.3     1  UNL1        0.0310
     11 C         140.4214  142.9501  169.8899 C.ar    1  UNL1       -0.0218
     12 C         140.5641  142.0216  171.0593 C.ar    1  UNL1       -0.0043
     13 C         140.5558  140.5372  170.8437 C.ar    1  UNL1       -0.0003
     14 C         140.4048  139.9814  169.4586 C.ar    1  UNL1        0.0000
     15 C         140.2621  140.9099  168.2892 C.ar    1  UNL1        0.0012
     16 C         140.2704  142.3943  168.5048 C.ar    1  UNL1       -0.0042
     17 C         140.3600  139.1499  160.6397 C.2     1  UNL1        0.2456
     18 N         139.2414  139.2029  159.6417 N.am    1  UNL1       -0.3252
     19 O         141.7847  139.1633  160.1707 O.2     1  UNL1       -0.2703
     20 H         138.3063  139.1941  159.9496 H       1  UNL1        0.1453
     21 H         139.4423  139.2465  158.6789 H       1  UNL1        0.1453
     22 N         141.4954  141.2084  162.5035 N.pl3   1  UNL1       -0.3327
     23 H         142.4477  141.0350  162.3237 H       1  UNL1        0.1468
     24 C         140.9182  142.5680  162.2424 C.3     1  UNL1        0.0702
     25 C         139.7145  142.8678  161.3991 C.3     1  UNL1        0.0208
     26 C         139.4957  144.3516  161.4143 C.3     1  UNL1        0.0160
     27 C         140.5642  144.9690  162.2671 C.3     1  UNL1        0.0404
     28 C         139.8785  146.2567  161.9183 C.3     1  UNL1        0.0156
     29 N         141.4893  145.8555  163.0469 N.3     1  UNL1       -0.3231
     30 C         141.4433  143.8667  162.7789 C.3     1  UNL1        0.0282
     31 C         142.1847  144.9837  163.4518 C.3     1  UNL1        0.0029
     32 C         142.4775  142.9978  163.4313 C.3     1  UNL1        0.0029
     33 H         141.1946  146.8268  162.9463 H       1  UNL1        0.1188
     34 H         142.4400  145.7502  162.6927 H       1  UNL1        0.1188
@<TRIPOS>BOND
     1    10    11    1
     2    11    12   ar
     3    12    13   ar
     4    13    14   ar
     5    14    15   ar
     6    15     1    1
     7     1     2   ar
     8     2     3   ar
     9     3     4   ar
    10     4    22    1
    11    24    22    1
    12    24    25    1
    13    25    26    1
    14    26    27    1
    15    27    28    1
    16    27    29    1
    17    27    30    1
    18    30    31    1
    19    30    32    1
    20     4     5   ar
    21     5    17    1
    22    17    18   am
    23    17    19    2
    24     5     6   ar
    25     6     7   ar
    26     7     8   ar
    27     8     9   ar
    28    15    16   ar
    29    16    11   ar
    30     9     1   ar
    31     8     3   ar
    32    30    24    1
    33    22    23    1
    34    29    33    1
    35    29    34    1
    36    18    20    1
    37    18    21    1
@<TRIPOS>MOLECULE
*****
 34 37 0 0 0
SMALL
GASTEIGER

@<TRIPOS>ATOM
      1 C         139.6435  140.1258  165.9516 C.ar    1  UNL1        0.0207
      2 C         139.7928  141.0135  164.7517 C.ar    1  UNL1        0.0219
      3 C         139.7452  140.1490  163.5268 C.ar    1  UNL1        0.0961
      4 C         139.8416  140.4730  162.0654 C.ar    1  UNL1        0.0685
      5 C         139.7593  139.3749  161.0468 C.ar    1  UNL1        0.0885
      6 C         139.5806  137.9530  161.4896 C.ar    1  UNL1        0.1263
      7 N         139.4842  137.6290  162.9510 N.ar    1  UNL1       -0.1633
      8 N         139.5666  138.7271  163.9696 N.ar    1  UNL1       -0.2270
      9 C         139.5036  138.7127  165.4682 C.ar    1  UNL1        0.1004
     10 C         140.9919  143.5742  169.5972 C.3     1  UNL1        0.0310
     11 C         140.3096  142.2968  169.2063 C.ar    1  UNL1       -0.0218
     12 C         139.6191  141.4664  170.2472 C.ar    1  UNL1       -0.0043
     13 C         138.9368  140.1891  169.8563 C.ar    1  UNL1       -0.0003
     14 C         138.9449  139.7423  168.4244 C.ar    1  UNL1        0.0000
     15 C         139.6354  140.5727  167.3834 C.ar    1  UNL1        0.0012
     16 C         140.3177  141.8500  167.7743 C.ar    1  UNL1       -0.0042
     17 C         139.8556  139.6989  159.5853 C.2     1  UNL1        0.2456
     18 N         138.6989  139.4096  158.6751 N.am    1  UNL1       -0.3252
     19 O         141.1086  140.3121  159.0341 O.2     1  UNL1       -0.2703
     20 H         137.8765  139.0071  159.0369 H       1  UNL1        0.1453
     21 H         138.7622  139.6222  157.7159 H       1  UNL1        0.1453
     22 N         140.0203  141.8950  161.6225 N.pl3   1  UNL1       -0.3327
     23 H         139.3797  142.2988  160.9934 H       1  UNL1        0.1468
     24 C         141.1750  142.7016  162.1382 C.3     1  UNL1        0.0702
     25 C         142.5973  142.2372  162.2445 C.3     1  UNL1        0.0208
     26 C         143.4115  143.3628  162.8102 C.3     1  UNL1        0.0160
     27 C         142.4924  144.5229  163.0535 C.3     1  UNL1        0.0404
     28 C         143.7368  145.2039  163.5410 C.3     1  UNL1        0.0156
     29 N         141.8334  145.8254  163.3988 N.3     1  UNL1       -0.3231
     30 C         141.1102  144.1143  162.6383 C.3     1  UNL1        0.0282
     31 C         140.7401  145.5023  163.0704 C.3     1  UNL1        0.0029
     32 C         139.6506  143.9958  162.3133 C.3     1  UNL1        0.0029
     33 H         142.5307  146.4719  163.7681 H       1  UNL1        0.1188
     34 H         141.1120  145.6656  164.1019 H       1  UNL1        0.1188
@<TRIPOS>BOND
     1    10    11    1
     2    11    12   ar
     3    12    13   ar
     4    13    14   ar
     5    14    15   ar
     6    15     1    1
     7     1     2   ar
     8     2     3   ar
     9     3     4   ar
    10     4    22    1
    11    24    22    1
    12    24    25    1
    13    25    26    1
    14    26    27    1
    15    27    28    1
    16    27    29    1
    17    27    30    1
    18    30    31    1
    19    30    32    1
    20     4     5   ar
    21     5    17    1
    22    17    18   am
    23    17    19    2
    24     5     6   ar
    25     6     7   ar
    26     7     8   ar
    27     8     9   ar
    28    15    16   ar
    29    16    11   ar
    30     9     1   ar
    31     8     3   ar
    32    30    24    1
    33    22    23    1
    34    29    33    1
    35    29    34    1
    36    18    20    1
    37    18    21    1
@<TRIPOS>MOLECULE
*****
 34 37 0 0 0
SMALL
GASTEIGER

@<TRIPOS>ATOM
      1 C         140.5595  142.9056  166.7617 C.ar    1  UNL1        0.0207
      2 C         141.5056  142.8215  165.6008 C.ar    1  UNL1        0.0219
      3 C         140.8818  143.5407  164.4416 C.ar    1  UNL1        0.0961
      4 C         141.3543  143.7826  163.0387 C.ar    1  UNL1        0.0685
      5 C         140.4953  144.5531  162.0803 C.ar    1  UNL1        0.0885
      6 C         139.1638  145.0817  162.5249 C.ar    1  UNL1        0.1263
      7 N         138.6913  144.8398  163.9278 N.ar    1  UNL1       -0.1633
      8 N         139.5503  144.0693  164.8862 N.ar    1  UNL1       -0.2270
      9 C         139.3511  143.6768  166.3201 C.ar    1  UNL1        0.1004
     10 C         142.4014  139.0970  169.7787 C.3     1  UNL1        0.0310
     11 C         141.7036  140.4168  169.6336 C.ar    1  UNL1       -0.0218
     12 C         141.2289  141.1522  170.8517 C.ar    1  UNL1       -0.0043
     13 C         140.5311  142.4720  170.7066 C.ar    1  UNL1       -0.0003
     14 C         140.3080  143.0564  169.3432 C.ar    1  UNL1        0.0000
     15 C         140.7827  142.3211  168.1250 C.ar    1  UNL1        0.0012
     16 C         141.4805  141.0013  168.2702 C.ar    1  UNL1       -0.0042
     17 C         140.9678  144.7950  160.6773 C.2     1  UNL1        0.2456
     18 N         139.9771  145.1114  159.5964 N.am    1  UNL1       -0.3252
     19 O         142.4309  144.7204  160.3553 O.2     1  UNL1       -0.2703
     20 H         139.0168  145.1604  159.8077 H       1  UNL1        0.1453
     21 H         140.2873  145.2702  158.6756 H       1  UNL1        0.1453
     22 N         142.6859  143.2539  162.5940 N.pl3   1  UNL1       -0.3327
     23 H         143.4516  143.8654  162.4994 H       1  UNL1        0.1468
     24 C         142.8506  141.7936  162.2935 C.3     1  UNL1        0.0702
     25 C         141.9976  140.9831  161.3633 C.3     1  UNL1        0.0208
     26 C         142.5170  139.5760  161.3654 C.3     1  UNL1        0.0160
     27 C         143.6912  139.5168  162.2969 C.3     1  UNL1        0.0404
     28 C         143.7323  138.0707  161.9008 C.3     1  UNL1        0.0156
     29 N         144.8740  139.1553  163.1457 N.3     1  UNL1       -0.3231
     30 C         143.8974  140.8873  162.8706 C.3     1  UNL1        0.0282
     31 C         145.0371  140.2393  163.5994 C.3     1  UNL1        0.0029
     32 C         144.3418  142.1224  163.5965 C.3     1  UNL1        0.0029
     33 H         145.0889  138.1654  163.0254 H       1  UNL1        0.1188
     34 H         144.6585  139.3399  164.1254 H       1  UNL1        0.1188
@<TRIPOS>BOND
     1    10    11    1
     2    11    12   ar
     3    12    13   ar
     4    13    14   ar
     5    14    15   ar
     6    15     1    1
     7     1     2   ar
     8     2     3   ar
     9     3     4   ar
    10     4    22    1
    11    24    22    1
    12    24    25    1
    13    25    26    1
    14    26    27    1
    15    27    28    1
    16    27    29    1
    17    27    30    1
    18    30    31    1
    19    30    32    1
    20     4     5   ar
    21     5    17    1
    22    17    18   am
    23    17    19    2
    24     5     6   ar
    25     6     7   ar
    26     7     8   ar
    27     8     9   ar
    28    15    16   ar
    29    16    11   ar
    30     9     1   ar
    31     8     3   ar
    32    30    24    1
    33    22    23    1
    34    29    33    1
    35    29    34    1
    36    18    20    1
    37    18    21    1
@<TRIPOS>MOLECULE
*****
 34 37 0 0 0
SMALL
GASTEIGER

@<TRIPOS>ATOM
      1 C         140.1911  140.1404  167.0897 C.ar    1  UNL1        0.0207
      2 C         141.1150  140.3291  165.9232 C.ar    1  UNL1        0.0219
      3 C         140.5895  139.5137  164.7791 C.ar    1  UNL1        0.0961
      4 C         141.0867  139.3125  163.3783 C.ar    1  UNL1        0.0685
      5 C         140.3351  138.4185  162.4369 C.ar    1  UNL1        0.0885
      6 C         139.0865  137.7260  162.8963 C.ar    1  UNL1        0.1263
      7 N         138.5893  137.9272  164.2971 N.ar    1  UNL1       -0.1633
      8 N         139.3408  138.8211  165.2385 N.ar    1  UNL1       -0.2270
      9 C         139.0946  139.2084  166.6666 C.ar    1  UNL1        0.1004
     10 C         140.4071  144.3911  170.0704 C.3     1  UNL1        0.0310
     11 C         140.4459  142.8980  169.9324 C.ar    1  UNL1       -0.0218
     12 C         140.6315  142.0371  171.1467 C.ar    1  UNL1       -0.0043
     13 C         140.6703  140.5440  171.0087 C.ar    1  UNL1       -0.0003
     14 C         140.5235  139.9118  169.6563 C.ar    1  UNL1        0.0000
     15 C         140.3379  140.7727  168.4420 C.ar    1  UNL1        0.0012
     16 C         140.2991  142.2658  168.5800 C.ar    1  UNL1       -0.0042
     17 C         140.8324  138.2173  161.0360 C.2     1  UNL1        0.2456
     18 N         139.9233  138.4810  159.8724 N.am    1  UNL1       -0.3252
     19 O         142.2386  137.7522  160.7989 O.2     1  UNL1       -0.2703
     20 H         139.0004  138.7862  160.0281 H       1  UNL1        0.1453
     21 H         140.2497  138.3489  158.9530 H       1  UNL1        0.1453
     22 N         142.3354  140.0051  162.9188 N.pl3   1  UNL1       -0.3327
     23 H         143.0561  139.4883  162.4914 H       1  UNL1        0.1468
     24 C         142.4859  141.4851  163.1107 C.3     1  UNL1        0.0702
     25 C         141.5187  142.5364  162.6533 C.3     1  UNL1        0.0208
     26 C         142.0651  143.8747  163.0535 C.3     1  UNL1        0.0160
     27 C         143.3701  143.6506  163.7583 C.3     1  UNL1        0.0404
     28 C         143.3834  145.1459  163.8755 C.3     1  UNL1        0.0156
     29 N         144.6779  143.7391  164.4876 N.3     1  UNL1       -0.3231
     30 C         143.6302  142.1738  163.7937 C.3     1  UNL1        0.0282
     31 C         144.8837  142.5710  164.5156 C.3     1  UNL1        0.0029
     32 C         144.1523  140.7800  163.9799 C.3     1  UNL1        0.0029
     33 H         144.8948  144.7172  164.6793 H       1  UNL1        0.1188
     34 H         145.4161  143.3336  163.9123 H       1  UNL1        0.1188
@<TRIPOS>BOND
     1    10    11    1
     2    11    12   ar
     3    12    13   ar
     4    13    14   ar
     5    14    15   ar
     6    15     1    1
     7     1     2   ar
     8     2     3   ar
     9     3     4   ar
    10     4    22    1
    11    24    22    1
    12    24    25    1
    13    25    26    1
    14    26    27    1
    15    27    28    1
    16    27    29    1
    17    27    30    1
    18    30    31    1
    19    30    32    1
    20     4     5   ar
    21     5    17    1
    22    17    18   am
    23    17    19    2
    24     5     6   ar
    25     6     7   ar
    26     7     8   ar
    27     8     9   ar
    28    15    16   ar
    29    16    11   ar
    30     9     1   ar
    31     8     3   ar
    32    30    24    1
    33    22    23    1
    34    29    33    1
    35    29    34    1
    36    18    20    1
    37    18    21    1
@<TRIPOS>MOLECULE
*****
 34 37 0 0 0
SMALL
GASTEIGER

@<TRIPOS>ATOM
      1 C         142.9380  141.7555  164.7320 C.ar    1  UNL1        0.0207
      2 C         141.7638  140.8837  165.0657 C.ar    1  UNL1        0.0219
      3 C         141.5322  140.9647  166.5454 C.ar    1  UNL1        0.0961
      4 C         140.5156  140.3181  167.4390 C.ar    1  UNL1        0.0685
      5 C         140.5301  140.5934  168.9135 C.ar    1  UNL1        0.0885
      6 C         141.5609  141.5152  169.4943 C.ar    1  UNL1        0.1263
      7 N         142.5775  142.1618  168.6007 N.ar    1  UNL1       -0.1633
      8 N         142.5631  141.8865  167.1263 N.ar    1  UNL1       -0.2270
      9 C         143.4320  142.3753  166.0055 C.ar    1  UNL1        0.1004
     10 C         143.7715  140.0793  159.8847 C.3     1  UNL1        0.0310
     11 C         143.9334  141.1318  160.9411 C.ar    1  UNL1       -0.0218
     12 C         144.6739  142.3987  160.6303 C.ar    1  UNL1       -0.0043
     13 C         144.8358  143.4512  161.6867 C.ar    1  UNL1       -0.0003
     14 C         144.2571  143.2368  163.0540 C.ar    1  UNL1        0.0000
     15 C         143.5166  141.9699  163.3648 C.ar    1  UNL1        0.0012
     16 C         143.3547  140.9174  162.3083 C.ar    1  UNL1       -0.0042
     17 C         139.5134  139.9468  169.8072 C.2     1  UNL1        0.2456
     18 N         139.8786  139.5778  171.2145 N.am    1  UNL1       -0.3252
     19 O         138.1317  139.6693  169.2935 O.2     1  UNL1       -0.2703
     20 H         140.7854  139.7599  171.5516 H       1  UNL1        0.1453
     21 H         139.2114  139.1534  171.8010 H       1  UNL1        0.1453
     22 N         139.4846  139.3963  166.8582 N.pl3   1  UNL1       -0.3327
     23 H         139.1887  138.6063  167.3659 H       1  UNL1        0.1468
     24 C         138.9044  139.6781  165.5040 C.3     1  UNL1        0.0702
     25 C         138.2337  140.9508  165.0796 C.3     1  UNL1        0.0208
     26 C         137.8079  140.7960  163.6497 C.3     1  UNL1        0.0160
     27 C         138.2153  139.4274  163.1904 C.3     1  UNL1        0.0404
     28 C         137.5957  139.8507  161.8916 C.3     1  UNL1        0.0156
     29 N         138.4933  138.1474  162.4595 N.3     1  UNL1       -0.3231
     30 C         138.8930  138.7365  164.3364 C.3     1  UNL1        0.0282
     31 C         139.0293  137.6008  163.3659 C.3     1  UNL1        0.0029
     32 C         139.5992  137.8082  165.2795 C.3     1  UNL1        0.0029
     33 H         138.1381  138.2164  161.5058 H       1  UNL1        0.1188
     34 H         138.0314  137.3748  162.9393 H       1  UNL1        0.1188
@<TRIPOS>BOND
     1    10    11    1
     2    11    12   ar
     3    12    13   ar
     4    13    14   ar
     5    14    15   ar
     6    15     1    1
     7     1     2   ar
     8     2     3   ar
     9     3     4   ar
    10     4    22    1
    11    24    22    1
    12    24    25    1
    13    25    26    1
    14    26    27    1
    15    27    28    1
    16    27    29    1
    17    27    30    1
    18    30    31    1
    19    30    32    1
    20     4     5   ar
    21     5    17    1
    22    17    18   am
    23    17    19    2
    24     5     6   ar
    25     6     7   ar
    26     7     8   ar
    27     8     9   ar
    28    15    16   ar
    29    16    11   ar
    30     9     1   ar
    31     8     3   ar
    32    30    24    1
    33    22    23    1
    34    29    33    1
    35    29    34    1
    36    18    20    1
    37    18    21    1
@<TRIPOS>MOLECULE
*****
 34 37 0 0 0
SMALL
GASTEIGER

@<TRIPOS>ATOM
      1 C         140.7535  139.3432  163.2224 C.ar    1  UNL1        0.0207
      2 C         141.4977  140.5368  162.7015 C.ar    1  UNL1        0.0219
      3 C         142.0685  140.1785  161.3614 C.ar    1  UNL1        0.0961
      4 C         142.8941  140.9580  160.3812 C.ar    1  UNL1        0.0685
      5 C         143.3283  140.3223  159.0938 C.ar    1  UNL1        0.0885
      6 C         142.9370  138.9073  158.7866 C.ar    1  UNL1        0.1263
      7 N         142.1113  138.1278  159.7667 N.ar    1  UNL1       -0.1633
      8 N         141.6771  138.7634  161.0541 N.ar    1  UNL1       -0.2270
      9 C         140.8643  138.2472  162.2043 C.ar    1  UNL1        0.1004
     10 C         140.0478  141.0126  168.0922 C.3     1  UNL1        0.0310
     11 C         139.6732  140.0948  166.9665 C.ar    1  UNL1       -0.0218
     12 C         138.5712  139.0939  167.1500 C.ar    1  UNL1       -0.0043
     13 C         138.1965  138.1761  166.0243 C.ar    1  UNL1       -0.0003
     14 C         138.9240  138.2592  164.7151 C.ar    1  UNL1        0.0000
     15 C         140.0261  139.2601  164.5316 C.ar    1  UNL1        0.0012
     16 C         140.4007  140.1779  165.6573 C.ar    1  UNL1       -0.0042
     17 C         144.1540  141.1018  158.1136 C.2     1  UNL1        0.2456
     18 N         145.1887  140.4034  157.2819 N.am    1  UNL1       -0.3252
     19 O         143.9450  142.5797  157.9650 O.2     1  UNL1       -0.2703
     20 H         145.3259  139.4334  157.3794 H       1  UNL1        0.1453
     21 H         145.7306  140.9150  156.6386 H       1  UNL1        0.1453
     22 N         143.2856  142.3731  160.6884 N.pl3   1  UNL1       -0.3327
     23 H         144.2367  142.6144  160.7686 H       1  UNL1        0.1468
     24 C         142.2278  143.4204  160.8734 C.3     1  UNL1        0.0702
     25 C         141.0849  143.6936  159.9413 C.3     1  UNL1        0.0208
     26 C         140.2780  144.8205  160.5148 C.3     1  UNL1        0.0160
     27 C         140.9223  145.2439  161.8015 C.3     1  UNL1        0.0404
     28 C         139.8031  146.2412  161.8510 C.3     1  UNL1        0.0156
     29 N         141.3326  145.8757  163.0986 N.3     1  UNL1       -0.3231
     30 C         142.1274  144.3786  162.0232 C.3     1  UNL1        0.0282
     31 C         142.2858  145.1914  163.2740 C.3     1  UNL1        0.0029
     32 C         143.3655  143.6832  162.5063 C.3     1  UNL1        0.0029
     33 H         140.6764  146.6193  163.3371 H       1  UNL1        0.1188
     34 H         142.2701  146.2667  163.0048 H       1  UNL1        0.1188
@<TRIPOS>BOND
     1    10    11    1
     2    11    12   ar
     3    12    13   ar
     4    13    14   ar
     5    14    15   ar
     6    15     1    1
     7     1     2   ar
     8     2     3   ar
     9     3     4   ar
    10     4    22    1
    11    24    22    1
    12    24    25    1
    13    25    26    1
    14    26    27    1
    15    27    28    1
    16    27    29    1
    17    27    30    1
    18    30    31    1
    19    30    32    1
    20     4     5   ar
    21     5    17    1
    22    17    18   am
    23    17    19    2
    24     5     6   ar
    25     6     7   ar
    26     7     8   ar
    27     8     9   ar
    28    15    16   ar
    29    16    11   ar
    30     9     1   ar
    31     8     3   ar
    32    30    24    1
    33    22    23    1
    34    29    33    1
    35    29    34    1
    36    18    20    1
    37    18    21    1
@<TRIPOS>MOLECULE
*****
 34 37 0 0 0
SMALL
GASTEIGER

@<TRIPOS>ATOM
      1 C         142.6374  139.2723  163.4891 C.ar    1  UNL1        0.0207
      2 C         141.4142  139.8294  164.1549 C.ar    1  UNL1        0.0219
      3 C         141.6062  139.7253  165.6389 C.ar    1  UNL1        0.0961
      4 C         140.7324  140.1160  166.7938 C.ar    1  UNL1        0.0685
      5 C         141.2007  139.8854  168.2001 C.ar    1  UNL1        0.0885
      6 C         142.5425  139.2640  168.4514 C.ar    1  UNL1        0.1263
      7 N         143.4162  138.8732  167.2965 N.ar    1  UNL1       -0.1633
      8 N         142.9481  139.1039  165.8902 N.ar    1  UNL1       -0.2270
      9 C         143.5854  138.8239  164.5615 C.ar    1  UNL1        0.1004
     10 C         144.0502  141.4936  159.0091 C.3     1  UNL1        0.0310
     11 C         143.5780  140.2905  159.7703 C.ar    1  UNL1       -0.0218
     12 C         143.3400  138.9949  159.0528 C.ar    1  UNL1       -0.0043
     13 C         142.8678  137.7918  159.8141 C.ar    1  UNL1       -0.0003
     14 C         142.6336  137.8843  161.2928 C.ar    1  UNL1        0.0000
     15 C         142.8716  139.1799  162.0103 C.ar    1  UNL1        0.0012
     16 C         143.3438  140.3830  161.2491 C.ar    1  UNL1       -0.0042
     17 C         140.3269  140.2761  169.3551 C.2     1  UNL1        0.2456
     18 N         140.8902  141.0955  170.4782 N.am    1  UNL1       -0.3252
     19 O         138.8898  139.8475  169.3870 O.2     1  UNL1       -0.2703
     20 H         141.8335  141.3768  170.4572 H       1  UNL1        0.1453
     21 H         140.3168  141.3520  171.2362 H       1  UNL1        0.1453
     22 N         139.3905  140.7375  166.5425 N.pl3   1  UNL1       -0.3327
     23 H         138.5818  140.3395  166.9384 H       1  UNL1        0.1468
     24 C         139.2809  141.9654  165.6880 C.3     1  UNL1        0.0702
     25 C         140.0269  143.2507  165.8915 C.3     1  UNL1        0.0208
     26 C         139.6131  144.2033  164.8093 C.3     1  UNL1        0.0160
     27 C         138.6113  143.5067  163.9368 C.3     1  UNL1        0.0404
     28 C         138.6069  144.8007  163.1782 C.3     1  UNL1        0.0156
     29 N         137.6086  143.0806  162.9058 N.3     1  UNL1       -0.3231
     30 C         138.4059  142.1236  164.4799 C.3     1  UNL1        0.0282
     31 C         137.4461  141.9867  163.3353 C.3     1  UNL1        0.0029
     32 C         138.0000  140.7119  164.7837 C.3     1  UNL1        0.0029
     33 H         137.4461  143.8469  162.2525 H       1  UNL1        0.1188
     34 H         136.7320  142.8341  163.3655 H       1  UNL1        0.1188
@<TRIPOS>BOND
     1    10    11    1
     2    11    12   ar
     3    12    13   ar
     4    13    14   ar
     5    14    15   ar
     6    15     1    1
     7     1     2   ar
     8     2     3   ar
     9     3     4   ar
    10     4    22    1
    11    24    22    1
    12    24    25    1
    13    25    26    1
    14    26    27    1
    15    27    28    1
    16    27    29    1
    17    27    30    1
    18    30    31    1
    19    30    32    1
    20     4     5   ar
    21     5    17    1
    22    17    18   am
    23    17    19    2
    24     5     6   ar
    25     6     7   ar
    26     7     8   ar
    27     8     9   ar
    28    15    16   ar
    29    16    11   ar
    30     9     1   ar
    31     8     3   ar
    32    30    24    1
    33    22    23    1
    34    29    33    1
    35    29    34    1
    36    18    20    1
    37    18    21    1
