@<TRIPOS>MOLECULE
*****
 44 48 0 0 0
SMALL
GASTEIGER

@<TRIPOS>ATOM
      1 C         137.1532  141.6232  156.6392 C.2     1  UNL1        0.2458
      2 O         137.0577  140.5261  157.6577 O.2     1  UNL1       -0.2730
      3 N         138.1785  142.7065  156.7978 N.am    1  UNL1       -0.2767
      4 C         138.3916  143.8622  155.8655 C.3     1  UNL1        0.0949
      5 C         139.5155  144.6943  156.4080 C.3     1  UNL1        0.0390
      6 C         139.9971  144.0529  157.6756 C.3     1  UNL1        0.0758
      7 C         139.1708  142.8244  157.9165 C.3     1  UNL1        0.1091
      8 N         141.1097  144.5523  158.5490 N.3     1  UNL1       -0.2982
      9 H         141.3164  145.5044  158.2468 H       1  UNL1        0.1232
     10 C         140.9311  144.5996  160.0376 C.3     1  UNL1        0.0542
     11 C         140.1353  145.7068  160.6627 C.3     1  UNL1        0.0185
     12 C         139.9568  145.7540  162.1513 C.3     1  UNL1        0.0340
     13 C         140.5740  144.6941  163.0147 C.3     1  UNL1        0.1231
     14 O         139.9128  145.5345  164.0666 O.3     1  UNL1       -0.3812
     15 C         141.3698  143.5869  162.3896 C.3     1  UNL1        0.0340
     16 C         141.5484  143.5397  160.9010 C.3     1  UNL1        0.0185
     17 H         139.4592  146.2815  163.6457 H       1  UNL1        0.2107
     18 C         140.9616  143.9261  164.2435 C.ar    1  UNL1        0.0830
     19 C         139.9454  143.6620  165.3147 C.ar    1  UNL1        0.0172
     20 C         140.3331  142.8940  166.5435 C.ar    1  UNL1        0.0059
     21 C         141.7371  142.3900  166.7010 C.ar    1  UNL1        0.0549
     22 C         142.7533  142.6541  165.6298 C.ar    1  UNL1        0.1015
     23 N         142.3657  143.4221  164.4011 N.ar    1  UNL1       -0.2458
     24 C         142.1247  141.6220  167.9298 C.ar    1  UNL1        0.1638
     25 N         141.5579  140.2540  168.1691 N.ar    1  UNL1       -0.2250
     26 C         141.9456  139.4860  169.3980 C.ar    1  UNL1        0.1022
     27 C         142.9001  140.0861  170.3874 C.ar    1  UNL1        0.0414
     28 C         143.4669  141.4541  170.1481 C.ar    1  UNL1        0.1022
     29 N         143.0792  142.2221  168.9192 N.ar    1  UNL1       -0.2250
     30 C         136.2235  141.6369  155.4622 C.3     1  UNL1        0.1761
     31 O         134.7362  139.0407  155.6806 O.2     1  UNL1       -0.2701
     32 C         133.9956  140.3407  155.7879 C.2     1  UNL1        0.2462
     33 N         134.7392  141.6387  155.6788 N.am    1  UNL1       -0.2931
     34 H         134.2531  142.4919  155.7493 H       1  UNL1        0.1502
     35 C         132.5113  140.3426  156.0045 C.ar    1  UNL1        0.0533
     36 C         131.6651  141.4181  155.3904 C.ar    1  UNL1        0.0045
     37 C         130.1808  141.4200  155.6069 C.ar    1  UNL1        0.0001
     38 C         129.5427  140.3464  156.4376 C.ar    1  UNL1        0.0039
     39 C         130.3889  139.2708  157.0517 C.ar    1  UNL1        0.0716
     40 C         131.8732  139.2689  156.8352 C.ar    1  UNL1        0.0084
     41 C         129.7508  138.1971  157.8824 C.3     1  UNL1        0.4186
     42 F         129.1126  137.1235  158.7131 F       1  UNL1       -0.1659
     43 F         129.9877  137.2053  156.7824 F       1  UNL1       -0.1659
     44 F         129.5138  139.1890  158.9824 F       1  UNL1       -0.1659
@<TRIPOS>BOND
     1    31    32    2
     2    32    33   am
     3    33    30    1
     4    30     1    1
     5     1     2    2
     6     1     3   am
     7     3     4    1
     8     4     5    1
     9     5     6    1
    10     6     8    1
    11    10     8    1
    12    10    11    1
    13    11    12    1
    14    12    13    1
    15    13    14    1
    16    13    18    1
    17    18    19   ar
    18    19    20   ar
    19    20    21   ar
    20    21    24    1
    21    24    25   ar
    22    25    26   ar
    23    26    27   ar
    24    27    28   ar
    25    28    29   ar
    26    21    22   ar
    27    22    23   ar
    28    13    15    1
    29    15    16    1
    30     6     7    1
    31    32    35    1
    32    35    36   ar
    33    36    37   ar
    34    37    38   ar
    35    38    39   ar
    36    39    41    1
    37    41    42    1
    38    41    43    1
    39    41    44    1
    40    39    40   ar
    41     7     3    1
    42    40    35   ar
    43    16    10    1
    44    23    18   ar
    45    29    24   ar
    46    33    34    1
    47     8     9    1
    48    14    17    1
@<TRIPOS>MOLECULE
*****
 44 48 0 0 0
SMALL
GASTEIGER

@<TRIPOS>ATOM
      1 C         138.0403  142.9562  162.3257 C.2     1  UNL1        0.2458
      2 O         138.4210  144.3249  161.8445 O.2     1  UNL1       -0.2730
      3 N         138.0311  141.8006  161.3694 N.am    1  UNL1       -0.2767
      4 C         137.6743  140.3824  161.7037 C.3     1  UNL1        0.0949
      5 C         137.7998  139.5656  160.4519 C.3     1  UNL1        0.0390
      6 C         138.2341  140.4789  159.3440 C.3     1  UNL1        0.0758
      7 C         138.3770  141.8601  159.9111 C.3     1  UNL1        0.1091
      8 N         138.4819  140.0808  157.9192 N.3     1  UNL1       -0.2982
      9 H         138.5192  140.9426  157.3749 H       1  UNL1        0.1232
     10 C         139.7063  139.2906  157.5633 C.3     1  UNL1        0.0542
     11 C         141.0621  139.9252  157.6577 C.3     1  UNL1        0.0185
     12 C         142.2864  139.1350  157.3019 C.3     1  UNL1        0.0340
     13 C         142.1548  137.7102  156.8516 C.3     1  UNL1        0.1231
     14 O         143.6447  137.8692  156.7811 O.3     1  UNL1       -0.3812
     15 C         140.7990  137.0756  156.7572 C.3     1  UNL1        0.0340
     16 C         139.5747  137.8658  157.1131 C.3     1  UNL1        0.0185
     17 H         143.8871  138.7684  157.0523 H       1  UNL1        0.2107
     18 C         142.5408  136.3407  156.3769 C.ar    1  UNL1        0.0830
     19 C         142.2336  135.9202  154.9702 C.ar    1  UNL1        0.0172
     20 C         142.6196  134.5505  154.4956 C.ar    1  UNL1        0.0059
     21 C         143.3128  133.6015  155.4276 C.ar    1  UNL1        0.0549
     22 C         143.6200  134.0220  156.8343 C.ar    1  UNL1        0.1015
     23 N         143.2340  135.3916  157.3089 N.ar    1  UNL1       -0.2458
     24 C         143.6988  132.2319  154.9529 C.ar    1  UNL1        0.1638
     25 N         144.5191  131.3365  155.8334 N.ar    1  UNL1       -0.2250
     26 C         144.9050  129.9669  155.3586 C.ar    1  UNL1        0.1022
     27 C         144.4706  129.4929  154.0034 C.ar    1  UNL1        0.0414
     28 C         143.6503  130.3883  153.1229 C.ar    1  UNL1        0.1022
     29 N         143.2643  131.7579  153.5977 N.ar    1  UNL1       -0.2250
     30 C         137.6688  142.7431  163.7633 C.3     1  UNL1        0.1761
     31 O         139.4756  144.8041  164.9831 O.2     1  UNL1       -0.2701
     32 C         139.6188  143.3607  165.3651 C.2     1  UNL1        0.2462
     33 N         138.7155  142.3302  164.7553 N.am    1  UNL1       -0.2931
     34 H         138.8095  141.3829  165.0060 H       1  UNL1        0.1502
     35 C         140.6655  142.9477  166.3571 C.ar    1  UNL1        0.0533
     36 C         142.0634  142.6590  165.8961 C.ar    1  UNL1        0.0045
     37 C         143.1101  142.2460  166.8881 C.ar    1  UNL1        0.0001
     38 C         142.7588  142.1217  168.3410 C.ar    1  UNL1        0.0039
     39 C         141.3609  142.4104  168.8020 C.ar    1  UNL1        0.0716
     40 C         140.3143  142.8234  167.8101 C.ar    1  UNL1        0.0084
     41 C         141.0097  142.2861  170.2550 C.3     1  UNL1        0.4186
     42 F         140.6584  142.1618  171.7081 F       1  UNL1       -0.1659
     43 F         139.6577  141.7537  169.8826 F       1  UNL1       -0.1659
     44 F         142.3616  142.8185  170.6274 F       1  UNL1       -0.1659
@<TRIPOS>BOND
     1    31    32    2
     2    32    33   am
     3    33    30    1
     4    30     1    1
     5     1     2    2
     6     1     3   am
     7     3     4    1
     8     4     5    1
     9     5     6    1
    10     6     8    1
    11    10     8    1
    12    10    11    1
    13    11    12    1
    14    12    13    1
    15    13    14    1
    16    13    18    1
    17    18    19   ar
    18    19    20   ar
    19    20    21   ar
    20    21    24    1
    21    24    25   ar
    22    25    26   ar
    23    26    27   ar
    24    27    28   ar
    25    28    29   ar
    26    21    22   ar
    27    22    23   ar
    28    13    15    1
    29    15    16    1
    30     6     7    1
    31    32    35    1
    32    35    36   ar
    33    36    37   ar
    34    37    38   ar
    35    38    39   ar
    36    39    41    1
    37    41    42    1
    38    41    43    1
    39    41    44    1
    40    39    40   ar
    41     7     3    1
    42    40    35   ar
    43    16    10    1
    44    23    18   ar
    45    29    24   ar
    46    33    34    1
    47     8     9    1
    48    14    17    1
@<TRIPOS>MOLECULE
*****
 44 48 0 0 0
SMALL
GASTEIGER

@<TRIPOS>ATOM
      1 C         140.2303  144.9418  161.7491 C.2     1  UNL1        0.2458
      2 O         138.8596  145.5462  161.8254 O.2     1  UNL1       -0.2730
      3 N         140.7108  144.3321  160.4655 N.am    1  UNL1       -0.2767
      4 C         142.0494  143.6940  160.2394 C.3     1  UNL1        0.0949
      5 C         142.1029  143.2210  158.8169 C.3     1  UNL1        0.0390
      6 C         140.7975  143.5669  158.1639 C.3     1  UNL1        0.0758
      7 C         139.9372  144.2536  159.1828 C.3     1  UNL1        0.1091
      8 N         140.4189  143.2769  156.7418 N.3     1  UNL1       -0.2982
      9 H         141.2341  142.8507  156.3011 H       1  UNL1        0.1232
     10 C         139.2499  142.3855  156.4436 C.3     1  UNL1        0.0542
     11 C         139.4760  141.0214  155.8624 C.3     1  UNL1        0.0185
     12 C         138.3070  140.1300  155.5643 C.3     1  UNL1        0.0340
     13 C         136.9119  140.6029  155.8474 C.3     1  UNL1        0.1231
     14 O         136.6180  139.2383  155.2982 O.3     1  UNL1       -0.3812
     15 C         136.6858  141.9670  156.4287 C.3     1  UNL1        0.0340
     16 C         137.8548  142.8584  156.7268 C.3     1  UNL1        0.0185
     17 H         137.4499  138.7982  155.0636 H       1  UNL1        0.2107
     18 C         135.4147  140.6017  155.9398 C.ar    1  UNL1        0.0830
     19 C         134.6001  141.3494  154.9263 C.ar    1  UNL1        0.0172
     20 C         133.1029  141.3482  155.0188 C.ar    1  UNL1        0.0059
     21 C         132.4204  140.5993  156.1248 C.ar    1  UNL1        0.0549
     22 C         133.2351  139.8516  157.1383 C.ar    1  UNL1        0.1015
     23 N         134.7322  139.8528  157.0459 N.ar    1  UNL1       -0.2458
     24 C         130.9232  140.5981  156.2172 C.ar    1  UNL1        0.1638
     25 N         130.1190  141.5415  155.3727 N.ar    1  UNL1       -0.2250
     26 C         128.6218  141.5403  155.4652 C.ar    1  UNL1        0.1022
     27 C         127.9290  140.5957  156.4021 C.ar    1  UNL1        0.0414
     28 C         128.7333  139.6524  157.2466 C.ar    1  UNL1        0.1022
     29 N         130.2305  139.6536  157.1541 N.ar    1  UNL1       -0.2250
     30 C         141.1205  144.9472  162.9563 C.3     1  UNL1        0.1761
     31 O         138.9390  144.7976  165.0102 O.2     1  UNL1       -0.2701
     32 C         139.9881  143.7271  164.9510 C.2     1  UNL1        0.2462
     33 N         141.0788  143.8019  163.9241 N.am    1  UNL1       -0.2931
     34 H         141.7674  143.0993  163.8853 H       1  UNL1        0.1502
     35 C         139.9465  142.5819  165.9188 C.ar    1  UNL1        0.0533
     36 C         140.4423  142.7675  167.3223 C.ar    1  UNL1        0.0045
     37 C         140.4007  141.6222  168.2901 C.ar    1  UNL1        0.0001
     38 C         139.8632  140.2913  167.8544 C.ar    1  UNL1        0.0039
     39 C         139.3674  140.1057  166.4510 C.ar    1  UNL1        0.0716
     40 C         139.4090  141.2510  165.4832 C.ar    1  UNL1        0.0084
     41 C         138.8299  138.7748  166.0153 C.3     1  UNL1        0.4186
     42 F         138.2924  137.4438  165.5797 F       1  UNL1       -0.1659
     43 F         137.5089  139.1017  166.6463 F       1  UNL1       -0.1659
     44 F         140.1508  138.4479  165.3844 F       1  UNL1       -0.1659
@<TRIPOS>BOND
     1    31    32    2
     2    32    33   am
     3    33    30    1
     4    30     1    1
     5     1     2    2
     6     1     3   am
     7     3     4    1
     8     4     5    1
     9     5     6    1
    10     6     8    1
    11    10     8    1
    12    10    11    1
    13    11    12    1
    14    12    13    1
    15    13    14    1
    16    13    18    1
    17    18    19   ar
    18    19    20   ar
    19    20    21   ar
    20    21    24    1
    21    24    25   ar
    22    25    26   ar
    23    26    27   ar
    24    27    28   ar
    25    28    29   ar
    26    21    22   ar
    27    22    23   ar
    28    13    15    1
    29    15    16    1
    30     6     7    1
    31    32    35    1
    32    35    36   ar
    33    36    37   ar
    34    37    38   ar
    35    38    39   ar
    36    39    41    1
    37    41    42    1
    38    41    43    1
    39    41    44    1
    40    39    40   ar
    41     7     3    1
    42    40    35   ar
    43    16    10    1
    44    23    18   ar
    45    29    24   ar
    46    33    34    1
    47     8     9    1
    48    14    17    1
@<TRIPOS>MOLECULE
*****
 44 48 0 0 0
SMALL
GASTEIGER

@<TRIPOS>ATOM
      1 C         138.0617  143.2059  162.7064 C.2     1  UNL1        0.2458
      2 O         137.5538  144.6171  162.7266 O.2     1  UNL1       -0.2730
      3 N         138.9095  142.7302  161.5640 N.am    1  UNL1       -0.2767
      4 C         139.4864  141.3544  161.4073 C.3     1  UNL1        0.0949
      5 C         140.2626  141.3207  160.1242 C.3     1  UNL1        0.0390
      6 C         140.1655  142.6756  159.4880 C.3     1  UNL1        0.0758
      7 C         139.3293  143.5467  160.3778 C.3     1  UNL1        0.1091
      8 N         140.7943  143.0872  158.1898 N.3     1  UNL1       -0.2982
      9 H         140.8493  142.2494  157.6106 H       1  UNL1        0.1232
     10 C         140.1533  144.1525  157.3505 C.3     1  UNL1        0.0542
     11 C         139.0276  143.8010  156.4236 C.3     1  UNL1        0.0185
     12 C         138.3867  144.8663  155.5844 C.3     1  UNL1        0.0340
     13 C         138.8716  146.2831  155.6720 C.3     1  UNL1        0.1231
     14 O         137.7829  146.4429  154.6526 O.3     1  UNL1       -0.3812
     15 C         139.9974  146.6345  156.5988 C.3     1  UNL1        0.0340
     16 C         140.6382  145.5693  157.4381 C.3     1  UNL1        0.0185
     17 H         137.3651  145.5830  154.4882 H       1  UNL1        0.2107
     18 C         138.9783  147.7553  155.4054 C.ar    1  UNL1        0.0830
     19 C         138.4767  148.7396  156.4201 C.ar    1  UNL1        0.0172
     20 C         138.5835  150.2119  156.1535 C.ar    1  UNL1        0.0059
     21 C         139.1919  150.6998  154.8722 C.ar    1  UNL1        0.0549
     22 C         139.6936  149.7155  153.8576 C.ar    1  UNL1        0.1015
     23 N         139.5868  148.2433  154.1241 N.ar    1  UNL1       -0.2458
     24 C         139.2987  152.1722  154.6057 C.ar    1  UNL1        0.1638
     25 N         140.1223  152.6681  153.4543 N.ar    1  UNL1       -0.2250
     26 C         140.2290  154.1404  153.1878 C.ar    1  UNL1        0.1022
     27 C         139.5121  155.1166  154.0727 C.ar    1  UNL1        0.0414
     28 C         138.6885  154.6207  155.2241 C.ar    1  UNL1        0.1022
     29 N         138.5818  153.1483  155.4905 N.ar    1  UNL1       -0.2250
     30 C         137.7219  142.2704  163.8286 C.3     1  UNL1        0.1761
     31 O         138.5498  139.4133  164.2186 O.2     1  UNL1       -0.2701
     32 C         139.1724  140.4949  165.0508 C.2     1  UNL1        0.2462
     33 N         138.7585  141.9233  164.8558 N.am    1  UNL1       -0.2931
     34 H         139.1672  142.6332  165.4020 H       1  UNL1        0.1502
     35 C         140.2090  140.1480  166.0780 C.ar    1  UNL1        0.0533
     36 C         139.9096  140.3295  167.5366 C.ar    1  UNL1        0.0045
     37 C         140.9462  139.9825  168.5638 C.ar    1  UNL1        0.0001
     38 C         142.2821  139.4541  168.1325 C.ar    1  UNL1        0.0039
     39 C         142.5815  139.2726  166.6739 C.ar    1  UNL1        0.0716
     40 C         141.5449  139.6195  165.6467 C.ar    1  UNL1        0.0084
     41 C         143.9174  138.7442  166.2426 C.3     1  UNL1        0.4186
     42 F         145.2533  138.2157  165.8113 F       1  UNL1       -0.1659
     43 F         144.0331  139.8545  165.2408 F       1  UNL1       -0.1659
     44 F         143.8016  137.6338  167.2444 F       1  UNL1       -0.1659
@<TRIPOS>BOND
     1    31    32    2
     2    32    33   am
     3    33    30    1
     4    30     1    1
     5     1     2    2
     6     1     3   am
     7     3     4    1
     8     4     5    1
     9     5     6    1
    10     6     8    1
    11    10     8    1
    12    10    11    1
    13    11    12    1
    14    12    13    1
    15    13    14    1
    16    13    18    1
    17    18    19   ar
    18    19    20   ar
    19    20    21   ar
    20    21    24    1
    21    24    25   ar
    22    25    26   ar
    23    26    27   ar
    24    27    28   ar
    25    28    29   ar
    26    21    22   ar
    27    22    23   ar
    28    13    15    1
    29    15    16    1
    30     6     7    1
    31    32    35    1
    32    35    36   ar
    33    36    37   ar
    34    37    38   ar
    35    38    39   ar
    36    39    41    1
    37    41    42    1
    38    41    43    1
    39    41    44    1
    40    39    40   ar
    41     7     3    1
    42    40    35   ar
    43    16    10    1
    44    23    18   ar
    45    29    24   ar
    46    33    34    1
    47     8     9    1
    48    14    17    1
@<TRIPOS>MOLECULE
*****
 44 48 0 0 0
SMALL
GASTEIGER

@<TRIPOS>ATOM
      1 C         141.0518  144.8416  162.0155 C.2     1  UNL1        0.2458
      2 O         139.8124  145.5320  161.5286 O.2     1  UNL1       -0.2730
      3 N         141.8253  143.9487  161.0912 N.am    1  UNL1       -0.2767
      4 C         143.0766  143.1960  161.4346 C.3     1  UNL1        0.0949
      5 C         143.5080  142.4339  160.2167 C.3     1  UNL1        0.0390
      6 C         142.5234  142.7156  159.1207 C.3     1  UNL1        0.0758
      7 C         141.4835  143.6518  159.6611 C.3     1  UNL1        0.1091
      8 N         142.5705  142.1589  157.7287 N.3     1  UNL1       -0.2982
      9 H         143.5424  142.2107  157.4236 H       1  UNL1        0.1232
     10 C         142.1082  140.7563  157.4658 C.3     1  UNL1        0.0542
     11 C         140.6661  140.3929  157.6610 C.3     1  UNL1        0.0185
     12 C         140.2040  138.9903  157.3982 C.3     1  UNL1        0.0340
     13 C         141.1839  137.9511  156.9401 C.3     1  UNL1        0.1231
     14 O         139.9310  137.1275  156.9812 O.3     1  UNL1       -0.3812
     15 C         142.6260  138.3146  156.7449 C.3     1  UNL1        0.0340
     16 C         143.0882  139.7171  157.0077 C.3     1  UNL1        0.0185
     17 H         139.1889  137.6818  157.2692 H       1  UNL1        0.2107
     18 C         141.7287  136.6259  156.4963 C.ar    1  UNL1        0.0830
     19 C         141.0363  135.8556  155.4113 C.ar    1  UNL1        0.0172
     20 C         141.5811  134.5304  154.9675 C.ar    1  UNL1        0.0059
     21 C         142.8183  133.9754  155.6088 C.ar    1  UNL1        0.0549
     22 C         143.5107  134.7457  156.6938 C.ar    1  UNL1        0.1015
     23 N         142.9659  136.0709  157.1376 N.ar    1  UNL1       -0.2458
     24 C         143.3631  132.6501  155.1650 C.ar    1  UNL1        0.1638
     25 N         142.9466  132.0720  153.8450 N.ar    1  UNL1       -0.2250
     26 C         143.4915  130.7468  153.4013 C.ar    1  UNL1        0.1022
     27 C         144.4527  129.9997  154.2776 C.ar    1  UNL1        0.0414
     28 C         144.8692  130.5777  155.5975 C.ar    1  UNL1        0.1022
     29 N         144.3243  131.9030  156.0413 N.ar    1  UNL1       -0.2250
     30 C         141.5177  145.0440  163.4269 C.3     1  UNL1        0.1761
     31 O         138.9282  144.5420  164.8561 O.2     1  UNL1       -0.2701
     32 C         140.1188  143.6730  165.1337 C.2     1  UNL1        0.2462
     33 N         141.4135  143.9240  164.4192 N.am    1  UNL1       -0.2931
     34 H         142.1949  143.3536  164.6015 H       1  UNL1        0.1502
     35 C         140.0147  142.5529  166.1260 C.ar    1  UNL1        0.0533
     36 C         140.5325  142.7368  167.5217 C.ar    1  UNL1        0.0045
     37 C         140.4284  141.6167  168.5140 C.ar    1  UNL1        0.0001
     38 C         139.8066  140.3127  168.1105 C.ar    1  UNL1        0.0039
     39 C         139.2888  140.1288  166.7148 C.ar    1  UNL1        0.0716
     40 C         139.3929  141.2489  165.7225 C.ar    1  UNL1        0.0084
     41 C         138.6669  138.8247  166.3113 C.3     1  UNL1        0.4186
     42 F         138.0450  137.5206  165.9079 F       1  UNL1       -0.1659
     43 F         139.5884  138.7508  165.1301 F       1  UNL1       -0.1659
     44 F         137.7455  138.8987  167.4926 F       1  UNL1       -0.1659
@<TRIPOS>BOND
     1    31    32    2
     2    32    33   am
     3    33    30    1
     4    30     1    1
     5     1     2    2
     6     1     3   am
     7     3     4    1
     8     4     5    1
     9     5     6    1
    10     6     8    1
    11    10     8    1
    12    10    11    1
    13    11    12    1
    14    12    13    1
    15    13    14    1
    16    13    18    1
    17    18    19   ar
    18    19    20   ar
    19    20    21   ar
    20    21    24    1
    21    24    25   ar
    22    25    26   ar
    23    26    27   ar
    24    27    28   ar
    25    28    29   ar
    26    21    22   ar
    27    22    23   ar
    28    13    15    1
    29    15    16    1
    30     6     7    1
    31    32    35    1
    32    35    36   ar
    33    36    37   ar
    34    37    38   ar
    35    38    39   ar
    36    39    41    1
    37    41    42    1
    38    41    43    1
    39    41    44    1
    40    39    40   ar
    41     7     3    1
    42    40    35   ar
    43    16    10    1
    44    23    18   ar
    45    29    24   ar
    46    33    34    1
    47     8     9    1
    48    14    17    1
@<TRIPOS>MOLECULE
*****
 44 48 0 0 0
SMALL
GASTEIGER

@<TRIPOS>ATOM
      1 C         140.3968  145.2278  161.6917 C.2     1  UNL1        0.2458
      2 O         139.1498  146.0611  161.7124 O.2     1  UNL1       -0.2730
      3 N         140.7878  144.4940  160.4433 N.am    1  UNL1       -0.2767
      4 C         142.0001  143.6269  160.2733 C.3     1  UNL1        0.0949
      5 C         141.9967  143.0955  158.8706 C.3     1  UNL1        0.0390
      6 C         140.7825  143.6341  158.1737 C.3     1  UNL1        0.0758
      7 C         140.0354  144.4984  159.1457 C.3     1  UNL1        0.1091
      8 N         140.3852  143.3570  156.7541 N.3     1  UNL1       -0.2982
      9 H         141.2003  142.9518  156.2939 H       1  UNL1        0.1232
     10 C         139.2275  142.4486  156.4629 C.3     1  UNL1        0.0542
     11 C         139.4709  141.0820  155.8946 C.3     1  UNL1        0.0185
     12 C         138.3133  140.1737  155.6034 C.3     1  UNL1        0.0340
     13 C         136.9122  140.6321  155.8806 C.3     1  UNL1        0.1231
     14 O         136.6357  139.2590  155.3438 O.3     1  UNL1       -0.3812
     15 C         136.6687  141.9987  156.4490 C.3     1  UNL1        0.0340
     16 C         137.8264  142.9069  156.7401 C.3     1  UNL1        0.0185
     17 H         137.4732  138.8269  155.1142 H       1  UNL1        0.2107
     18 C         135.4150  140.6135  155.9714 C.ar    1  UNL1        0.0830
     19 C         134.5926  141.3419  154.9501 C.ar    1  UNL1        0.0172
     20 C         133.0954  141.3232  155.0410 C.ar    1  UNL1        0.0059
     21 C         132.4208  140.5761  156.1530 C.ar    1  UNL1        0.0549
     22 C         133.2432  139.8477  157.1743 C.ar    1  UNL1        0.1015
     23 N         134.7403  139.8664  157.0835 N.ar    1  UNL1       -0.2458
     24 C         130.9236  140.5575  156.2438 C.ar    1  UNL1        0.1638
     25 N         130.2455  139.7097  157.2788 N.ar    1  UNL1       -0.2250
     26 C         128.7483  139.6911  157.3695 C.ar    1  UNL1        0.1022
     27 C         127.9294  140.5203  156.4252 C.ar    1  UNL1        0.0414
     28 C         128.6075  141.3681  155.3901 C.ar    1  UNL1        0.1022
     29 N         130.1047  141.3867  155.2994 N.ar    1  UNL1       -0.2250
     30 C         141.2528  145.1283  162.9195 C.3     1  UNL1        0.1761
     31 O         139.1285  145.0545  165.0366 O.2     1  UNL1       -0.2701
     32 C         140.0722  143.8991  164.8804 C.2     1  UNL1        0.2462
     33 N         141.1343  143.9360  163.8219 N.am    1  UNL1       -0.2931
     34 H         141.7537  143.1776  163.7194 H       1  UNL1        0.1502
     35 C         139.9538  142.7067  165.7827 C.ar    1  UNL1        0.0533
     36 C         139.4212  141.4108  165.2472 C.ar    1  UNL1        0.0045
     37 C         139.3028  140.2184  166.1496 C.ar    1  UNL1        0.0001
     38 C         139.7171  140.3219  167.5875 C.ar    1  UNL1        0.0039
     39 C         140.2497  141.6179  168.1230 C.ar    1  UNL1        0.0716
     40 C         140.3681  142.8103  167.2207 C.ar    1  UNL1        0.0084
     41 C         140.6640  141.7214  169.5609 C.3     1  UNL1        0.4186
     42 F         141.0782  141.8250  170.9990 F       1  UNL1       -0.1659
     43 F         142.1006  141.8158  169.1402 F       1  UNL1       -0.1659
     44 F         139.2273  141.6271  169.9816 F       1  UNL1       -0.1659
@<TRIPOS>BOND
     1    31    32    2
     2    32    33   am
     3    33    30    1
     4    30     1    1
     5     1     2    2
     6     1     3   am
     7     3     4    1
     8     4     5    1
     9     5     6    1
    10     6     8    1
    11    10     8    1
    12    10    11    1
    13    11    12    1
    14    12    13    1
    15    13    14    1
    16    13    18    1
    17    18    19   ar
    18    19    20   ar
    19    20    21   ar
    20    21    24    1
    21    24    25   ar
    22    25    26   ar
    23    26    27   ar
    24    27    28   ar
    25    28    29   ar
    26    21    22   ar
    27    22    23   ar
    28    13    15    1
    29    15    16    1
    30     6     7    1
    31    32    35    1
    32    35    36   ar
    33    36    37   ar
    34    37    38   ar
    35    38    39   ar
    36    39    41    1
    37    41    42    1
    38    41    43    1
    39    41    44    1
    40    39    40   ar
    41     7     3    1
    42    40    35   ar
    43    16    10    1
    44    23    18   ar
    45    29    24   ar
    46    33    34    1
    47     8     9    1
    48    14    17    1
@<TRIPOS>MOLECULE
*****
 44 48 0 0 0
SMALL
GASTEIGER

@<TRIPOS>ATOM
      1 C         140.4557  145.3812  161.6614 C.2     1  UNL1        0.2458
      2 O         139.3957  146.2632  161.0712 O.2     1  UNL1       -0.2730
      3 N         141.4355  144.6834  160.7651 N.am    1  UNL1       -0.2767
      4 C         142.5440  143.7752  161.2084 C.3     1  UNL1        0.0949
      5 C         143.2723  143.3019  159.9855 C.3     1  UNL1        0.0390
      6 C         142.6140  143.9176  158.7865 C.3     1  UNL1        0.0758
      7 C         141.4788  144.7714  159.2683 C.3     1  UNL1        0.1091
      8 N         143.0197  143.7150  157.3567 N.3     1  UNL1       -0.2982
      9 H         143.7865  144.3622  157.1737 H       1  UNL1        0.1232
     10 C         143.4729  142.3634  156.8899 C.3     1  UNL1        0.0542
     11 C         144.9368  142.0413  156.8340 C.3     1  UNL1        0.0185
     12 C         145.3900  140.6897  156.3673 C.3     1  UNL1        0.0340
     13 C         144.3793  139.6603  155.9564 C.3     1  UNL1        0.1231
     14 O         145.6449  138.8875  155.7306 O.3     1  UNL1       -0.3812
     15 C         142.9154  139.9825  156.0123 C.3     1  UNL1        0.0340
     16 C         142.4622  141.3340  156.4791 C.3     1  UNL1        0.0185
     17 H         146.4074  139.4413  155.9606 H       1  UNL1        0.2107
     18 C         143.8082  138.3625  155.4671 C.ar    1  UNL1        0.0830
     19 C         142.7357  138.3629  154.4185 C.ar    1  UNL1        0.0172
     20 C         142.1646  137.0649  153.9293 C.ar    1  UNL1        0.0059
     21 C         142.6662  135.7667  154.4887 C.ar    1  UNL1        0.0549
     22 C         143.7387  135.7663  155.5373 C.ar    1  UNL1        0.1015
     23 N         144.3098  137.0641  156.0265 N.ar    1  UNL1       -0.2458
     24 C         142.0951  134.4687  153.9994 C.ar    1  UNL1        0.1638
     25 N         141.9333  134.2279  152.5277 N.ar    1  UNL1       -0.2250
     26 C         141.3622  132.9300  152.0385 C.ar    1  UNL1        0.1022
     27 C         140.9529  131.8730  153.0210 C.ar    1  UNL1        0.0414
     28 C         141.1147  132.1138  154.4926 C.ar    1  UNL1        0.1022
     29 N         141.6858  133.4117  154.9818 N.ar    1  UNL1       -0.2250
     30 C         140.5359  145.1968  163.1478 C.3     1  UNL1        0.1761
     31 O         142.1408  143.3283  164.8604 O.2     1  UNL1       -0.2701
     32 C         140.6762  143.0820  164.6503 C.2     1  UNL1        0.2462
     33 N         139.8738  144.0162  163.7941 N.am    1  UNL1       -0.2931
     34 H         138.9125  143.8544  163.6562 H       1  UNL1        0.1502
     35 C         140.0140  141.9013  165.2966 C.ar    1  UNL1        0.0533
     36 C         139.0137  141.0891  164.5286 C.ar    1  UNL1        0.0045
     37 C         138.3515  139.9085  165.1748 C.ar    1  UNL1        0.0001
     38 C         138.6895  139.5401  166.5890 C.ar    1  UNL1        0.0039
     39 C         139.6898  140.3523  167.3570 C.ar    1  UNL1        0.0716
     40 C         140.3520  141.5329  166.7108 C.ar    1  UNL1        0.0084
     41 C         140.0278  139.9838  168.7712 C.3     1  UNL1        0.4186
     42 F         140.3658  139.6154  170.1855 F       1  UNL1       -0.1659
     43 F         141.4847  139.9554  168.4155 F       1  UNL1       -0.1659
     44 F         138.5709  140.0123  169.1268 F       1  UNL1       -0.1659
@<TRIPOS>BOND
     1    31    32    2
     2    32    33   am
     3    33    30    1
     4    30     1    1
     5     1     2    2
     6     1     3   am
     7     3     4    1
     8     4     5    1
     9     5     6    1
    10     6     8    1
    11    10     8    1
    12    10    11    1
    13    11    12    1
    14    12    13    1
    15    13    14    1
    16    13    18    1
    17    18    19   ar
    18    19    20   ar
    19    20    21   ar
    20    21    24    1
    21    24    25   ar
    22    25    26   ar
    23    26    27   ar
    24    27    28   ar
    25    28    29   ar
    26    21    22   ar
    27    22    23   ar
    28    13    15    1
    29    15    16    1
    30     6     7    1
    31    32    35    1
    32    35    36   ar
    33    36    37   ar
    34    37    38   ar
    35    38    39   ar
    36    39    41    1
    37    41    42    1
    38    41    43    1
    39    41    44    1
    40    39    40   ar
    41     7     3    1
    42    40    35   ar
    43    16    10    1
    44    23    18   ar
    45    29    24   ar
    46    33    34    1
    47     8     9    1
    48    14    17    1
@<TRIPOS>MOLECULE
*****
 44 48 0 0 0
SMALL
GASTEIGER

@<TRIPOS>ATOM
      1 C         140.6675  144.3651  160.2004 C.2     1  UNL1        0.2458
      2 O         141.8301  145.1029  159.6056 O.2     1  UNL1       -0.2730
      3 N         140.0548  143.2114  159.4631 N.am    1  UNL1       -0.2767
      4 C         138.8947  142.3828  159.9298 C.3     1  UNL1        0.0949
      5 C         138.6176  141.3430  158.8848 C.3     1  UNL1        0.0390
      6 C         139.6065  141.5289  157.7723 C.3     1  UNL1        0.0758
      7 C         140.4947  142.6836  158.1297 C.3     1  UNL1        0.1091
      8 N         139.6921  140.7048  156.5219 N.3     1  UNL1       -0.2982
      9 H         139.9338  141.3435  155.7643 H       1  UNL1        0.1232
     10 C         140.6549  139.5571  156.4445 C.3     1  UNL1        0.0542
     11 C         142.1233  139.8193  156.2860 C.3     1  UNL1        0.0185
     12 C         143.0860  138.6717  156.2086 C.3     1  UNL1        0.0340
     13 C         142.5804  137.2618  156.2897 C.3     1  UNL1        0.1231
     14 O         144.0505  137.0032  156.1415 O.3     1  UNL1       -0.3812
     15 C         141.1120  136.9996  156.4483 C.3     1  UNL1        0.0340
     16 C         140.1493  138.1472  156.5257 C.3     1  UNL1        0.0185
     17 H         144.5223  137.8481  156.0752 H       1  UNL1        0.2107
     18 C         142.5854  135.7621  156.3194 C.ar    1  UNL1        0.0830
     19 C         141.7088  134.9903  155.3781 C.ar    1  UNL1        0.0172
     20 C         141.7140  133.4906  155.4079 C.ar    1  UNL1        0.0059
     21 C         142.5956  132.7627  156.3788 C.ar    1  UNL1        0.0549
     22 C         143.4721  133.5345  157.3201 C.ar    1  UNL1        0.1015
     23 N         143.4671  135.0342  157.2904 N.ar    1  UNL1       -0.2458
     24 C         142.6006  131.2629  156.4085 C.ar    1  UNL1        0.1638
     25 N         143.3621  130.5365  157.4774 N.ar    1  UNL1       -0.2250
     26 C         143.3671  129.0368  157.5070 C.ar    1  UNL1        0.1022
     27 C         142.6107  128.2636  156.4678 C.ar    1  UNL1        0.0414
     28 C         141.8492  128.9900  155.3989 C.ar    1  UNL1        0.1022
     29 N         141.8442  130.4898  155.3693 N.ar    1  UNL1       -0.2250
     30 C         140.1174  144.7810  161.5324 C.3     1  UNL1        0.1761
     31 O         137.8062  143.9503  163.2553 O.2     1  UNL1       -0.2701
     32 C         139.1973  143.5098  163.6030 C.2     1  UNL1        0.2462
     33 N         140.3528  143.9251  162.7416 N.am    1  UNL1       -0.2931
     34 H         141.2658  143.6359  162.9698 H       1  UNL1        0.1502
     35 C         139.4327  142.6538  164.8121 C.ar    1  UNL1        0.0533
     36 C         140.3330  143.1379  165.9099 C.ar    1  UNL1        0.0045
     37 C         140.5684  142.2819  167.1190 C.ar    1  UNL1        0.0001
     38 C         139.9037  140.9419  167.2303 C.ar    1  UNL1        0.0039
     39 C         139.0035  140.4578  166.1324 C.ar    1  UNL1        0.0716
     40 C         138.7680  141.3138  164.9233 C.ar    1  UNL1        0.0084
     41 C         138.3388  139.1178  166.2437 C.3     1  UNL1        0.4186
     42 F         137.6740  137.7777  166.3549 F       1  UNL1       -0.1659
     43 F         138.4787  139.1723  167.7361 F       1  UNL1       -0.1659
     44 F         138.1988  139.0633  164.7513 F       1  UNL1       -0.1659
@<TRIPOS>BOND
     1    31    32    2
     2    32    33   am
     3    33    30    1
     4    30     1    1
     5     1     2    2
     6     1     3   am
     7     3     4    1
     8     4     5    1
     9     5     6    1
    10     6     8    1
    11    10     8    1
    12    10    11    1
    13    11    12    1
    14    12    13    1
    15    13    14    1
    16    13    18    1
    17    18    19   ar
    18    19    20   ar
    19    20    21   ar
    20    21    24    1
    21    24    25   ar
    22    25    26   ar
    23    26    27   ar
    24    27    28   ar
    25    28    29   ar
    26    21    22   ar
    27    22    23   ar
    28    13    15    1
    29    15    16    1
    30     6     7    1
    31    32    35    1
    32    35    36   ar
    33    36    37   ar
    34    37    38   ar
    35    38    39   ar
    36    39    41    1
    37    41    42    1
    38    41    43    1
    39    41    44    1
    40    39    40   ar
    41     7     3    1
    42    40    35   ar
    43    16    10    1
    44    23    18   ar
    45    29    24   ar
    46    33    34    1
    47     8     9    1
    48    14    17    1
@<TRIPOS>MOLECULE
*****
 44 48 0 0 0
SMALL
GASTEIGER

@<TRIPOS>ATOM
      1 C         140.4861  145.3665  161.5851 C.2     1  UNL1        0.2458
      2 O         139.4640  146.2880  160.9884 O.2     1  UNL1       -0.2730
      3 N         141.4601  144.6507  160.6968 N.am    1  UNL1       -0.2767
      4 C         142.5325  143.7034  161.1470 C.3     1  UNL1        0.0949
      5 C         143.2678  143.2239  159.9308 C.3     1  UNL1        0.0390
      6 C         142.6499  143.8748  158.7289 C.3     1  UNL1        0.0758
      7 C         141.5327  144.7566  159.2023 C.3     1  UNL1        0.1091
      8 N         143.0747  143.6784  157.3038 N.3     1  UNL1       -0.2982
      9 H         143.8509  144.3188  157.1369 H       1  UNL1        0.1232
     10 C         143.5208  142.3255  156.8338 C.3     1  UNL1        0.0542
     11 C         144.9837  142.0043  156.7532 C.3     1  UNL1        0.0185
     12 C         145.4297  140.6515  156.2832 C.3     1  UNL1        0.0340
     13 C         144.4128  139.6199  155.8938 C.3     1  UNL1        0.1231
     14 O         145.6748  138.8472  155.6483 O.3     1  UNL1       -0.3812
     15 C         142.9498  139.9411  155.9744 C.3     1  UNL1        0.0340
     16 C         142.5038  141.2939  156.4444 C.3     1  UNL1        0.0185
     17 H         146.4407  139.4024  155.8629 H       1  UNL1        0.2107
     18 C         143.8342  138.3199  155.4191 C.ar    1  UNL1        0.0830
     19 C         142.7588  138.3148  154.3735 C.ar    1  UNL1        0.0172
     20 C         142.1803  137.0147  153.8989 C.ar    1  UNL1        0.0059
     21 C         142.6772  135.7198  154.4700 C.ar    1  UNL1        0.0549
     22 C         143.7526  135.7249  155.5157 C.ar    1  UNL1        0.1015
     23 N         144.3311  137.0249  155.9902 N.ar    1  UNL1       -0.2458
     24 C         142.0986  134.4198  153.9953 C.ar    1  UNL1        0.1638
     25 N         141.9633  134.1511  152.5258 N.ar    1  UNL1       -0.2250
     26 C         141.3848  132.8511  152.0513 C.ar    1  UNL1        0.1022
     27 C         140.9416  131.8198  153.0462 C.ar    1  UNL1        0.0414
     28 C         141.0768  132.0884  154.5157 C.ar    1  UNL1        0.1022
     29 N         141.6554  133.3885  154.9903 N.ar    1  UNL1       -0.2250
     30 C         140.5342  145.1607  163.0701 C.3     1  UNL1        0.1761
     31 O         142.2426  143.4757  164.8709 O.2     1  UNL1       -0.2701
     32 C         140.8322  143.0617  164.5720 C.2     1  UNL1        0.2462
     33 N         139.9780  143.9042  163.6717 N.am    1  UNL1       -0.2931
     34 H         139.0523  143.6324  163.4756 H       1  UNL1        0.1502
     35 C         140.2759  141.8053  165.1735 C.ar    1  UNL1        0.0533
     36 C         140.1602  141.6743  166.6633 C.ar    1  UNL1        0.0045
     37 C         139.6039  140.4178  167.2648 C.ar    1  UNL1        0.0001
     38 C         139.1633  139.2923  166.3766 C.ar    1  UNL1        0.0039
     39 C         139.2790  139.4232  164.8868 C.ar    1  UNL1        0.0716
     40 C         139.8353  140.6797  164.2853 C.ar    1  UNL1        0.0084
     41 C         138.8384  138.2977  163.9985 C.3     1  UNL1        0.4186
     42 F         138.3979  137.1720  163.1102 F       1  UNL1       -0.1659
     43 F         138.0992  139.2722  163.1304 F       1  UNL1       -0.1659
     44 F         139.5777  137.3232  164.8667 F       1  UNL1       -0.1659
@<TRIPOS>BOND
     1    31    32    2
     2    32    33   am
     3    33    30    1
     4    30     1    1
     5     1     2    2
     6     1     3   am
     7     3     4    1
     8     4     5    1
     9     5     6    1
    10     6     8    1
    11    10     8    1
    12    10    11    1
    13    11    12    1
    14    12    13    1
    15    13    14    1
    16    13    18    1
    17    18    19   ar
    18    19    20   ar
    19    20    21   ar
    20    21    24    1
    21    24    25   ar
    22    25    26   ar
    23    26    27   ar
    24    27    28   ar
    25    28    29   ar
    26    21    22   ar
    27    22    23   ar
    28    13    15    1
    29    15    16    1
    30     6     7    1
    31    32    35    1
    32    35    36   ar
    33    36    37   ar
    34    37    38   ar
    35    38    39   ar
    36    39    41    1
    37    41    42    1
    38    41    43    1
    39    41    44    1
    40    39    40   ar
    41     7     3    1
    42    40    35   ar
    43    16    10    1
    44    23    18   ar
    45    29    24   ar
    46    33    34    1
    47     8     9    1
    48    14    17    1
