@<TRIPOS>MOLECULE
*****
 34 38 0 0 0
SMALL
GASTEIGER

@<TRIPOS>ATOM
      1 C         139.5218  142.4757  158.3405 C.3     1  UNL1        0.1531
      2 C         138.6632  142.3292  159.5617 C.3     1  UNL1        0.1067
      3 N         138.9153  141.2079  160.5256 N.3     1  UNL1       -0.2665
      4 C         138.0567  141.0613  161.7468 C.3     1  UNL1        0.0940
      5 C         138.3089  139.9401  162.7107 C.3     1  UNL1        0.1107
      6 N         139.4196  138.9654  162.4535 N.am    1  UNL1       -0.2764
      7 C         139.6717  137.8441  163.4175 C.2     1  UNL1        0.2303
      8 O         140.7825  136.8694  163.1602 O.2     1  UNL1       -0.2745
      9 C         140.2782  139.1119  161.2323 C.3     1  UNL1        0.1119
     10 C         140.0261  140.2332  160.2683 C.3     1  UNL1        0.1075
     11 C         140.8847  140.3798  159.0472 C.3     1  UNL1        0.1601
     12 O         140.6325  141.5010  158.0833 O.3     1  UNL1       -0.3489
     13 C         137.6236  142.0867  156.0502 C.3     1  UNL1        0.0316
     14 C         138.3206  143.4025  156.2314 C.ar    1  UNL1       -0.0117
     15 C         139.2697  143.5970  157.3765 C.ar    1  UNL1        0.0027
     16 C         139.9667  144.9128  157.5577 C.ar    1  UNL1        0.0001
     17 C         139.7146  146.0341  156.5938 C.ar    1  UNL1        0.0301
     18 C         138.7655  145.8396  155.4486 C.ar    1  UNL1        0.1493
     19 F         138.5134  146.9609  154.4847 F       1  UNL1       -0.2035
     20 C         138.0684  144.5238  155.2674 C.ar    1  UNL1        0.0916
     21 C         137.1194  144.3293  154.1223 C.1     1  UNL1        0.1024
     22 N         136.1703  144.1347  152.9772 N.1     1  UNL1       -0.1908
     23 C         138.8131  137.6975  164.6386 C.3     1  UNL1        0.1146
     24 C         139.1163  138.4997  165.8693 C.ar    1  UNL1        0.0254
     25 C         140.4406  139.1909  166.0066 C.ar    1  UNL1        0.0998
     26 N         140.7438  139.9931  167.2373 N.ar    1  UNL1       -0.2086
     27 C         139.7228  140.1042  168.3306 C.ar    1  UNL1        0.2559
     28 N         138.3986  139.4131  168.1932 N.ar    1  UNL1       -0.2086
     29 C         138.0954  138.6108  166.9625 C.ar    1  UNL1        0.0998
     30 N         140.0260  140.9064  169.5612 N.ar    1  UNL1       -0.1544
     31 C         140.2677  142.3860  169.6118 C.ar    1  UNL1        0.2287
     32 N         140.5319  142.7639  171.0393 N.ar    1  UNL1       -0.1044
     33 N         140.4533  141.5179  171.8708 N.ar    1  UNL1       -0.0222
     34 N         140.1407  140.3699  170.9573 N.ar    1  UNL1       -0.0359
@<TRIPOS>BOND
     1    13    14    1
     2    14    15   ar
     3     1    15    1
     4     1     2    1
     5     2     3    1
     6     3     4    1
     7     4     5    1
     8     5     6    1
     9     6     7   am
    10     7     8    2
    11     7    23    1
    12    23    24    1
    13    24    25   ar
    14    25    26   ar
    15    26    27   ar
    16    27    30    1
    17    30    31   ar
    18    31    32   ar
    19    32    33   ar
    20    33    34   ar
    21    27    28   ar
    22    28    29   ar
    23     6     9    1
    24    10     9    1
    25    10    11    1
    26    11    12    1
    27    15    16   ar
    28    16    17   ar
    29    17    18   ar
    30    18    19    1
    31    18    20   ar
    32    20    21    1
    33    21    22    3
    34    20    14   ar
    35    12     1    1
    36    10     3    1
    37    29    24   ar
    38    34    30   ar
@<TRIPOS>MOLECULE
*****
 34 38 0 0 0
SMALL
GASTEIGER

@<TRIPOS>ATOM
      1 C         138.4885  141.0950  157.6278 C.3     1  UNL1        0.1531
      2 C         137.6979  140.9675  158.8961 C.3     1  UNL1        0.1067
      3 N         138.2202  140.1282  160.0242 N.3     1  UNL1       -0.2665
      4 C         137.4296  140.0006  161.2926 C.3     1  UNL1        0.0940
      5 C         137.9518  139.1612  162.4207 C.3     1  UNL1        0.1107
      6 N         139.2647  138.4494  162.2805 N.am    1  UNL1       -0.2764
      7 C         139.7870  137.6100  163.4087 C.2     1  UNL1        0.2303
      8 O         141.0999  136.8982  163.2685 O.2     1  UNL1       -0.2745
      9 C         140.0553  138.5769  161.0122 C.3     1  UNL1        0.1119
     10 C         139.5330  139.4163  159.8840 C.3     1  UNL1        0.1075
     11 C         140.3236  139.5439  158.6157 C.3     1  UNL1        0.1601
     12 O         139.8014  140.3832  157.4876 O.3     1  UNL1       -0.3489
     13 C         139.3123  143.9700  157.3909 C.3     1  UNL1        0.0316
     14 C         138.3781  143.3719  156.3812 C.ar    1  UNL1       -0.0117
     15 C         137.9662  141.9344  156.4996 C.ar    1  UNL1        0.0027
     16 C         137.0321  141.3363  155.4899 C.ar    1  UNL1        0.0001
     17 C         136.5098  142.1756  154.3617 C.ar    1  UNL1        0.0301
     18 C         136.9217  143.6131  154.2433 C.ar    1  UNL1        0.1493
     19 F         136.3994  144.4524  153.1151 F       1  UNL1       -0.2035
     20 C         137.8559  144.2112  155.2530 C.ar    1  UNL1        0.0916
     21 C         138.2678  145.6487  155.1346 C.1     1  UNL1        0.1024
     22 N         138.6797  147.0861  155.0162 N.1     1  UNL1       -0.1908
     23 C         138.9964  137.4825  164.6770 C.3     1  UNL1        0.1146
     24 C         139.2720  138.4035  165.8284 C.ar    1  UNL1        0.0254
     25 C         138.2467  138.5813  166.9088 C.ar    1  UNL1        0.0998
     26 N         138.5224  139.5023  168.0602 N.ar    1  UNL1       -0.2086
     27 C         139.8233  140.2456  168.1312 C.ar    1  UNL1        0.2559
     28 N         140.8486  140.0678  167.0509 N.ar    1  UNL1       -0.2086
     29 C         140.5730  139.1468  165.8994 C.ar    1  UNL1        0.0998
     30 N         140.0990  141.1666  169.2826 N.ar    1  UNL1       -0.1544
     31 C         140.4414  142.6236  169.1837 C.ar    1  UNL1        0.2287
     32 N         140.6347  143.1498  170.5751 N.ar    1  UNL1       -0.1044
     33 N         140.4117  142.0179  171.5339 N.ar    1  UNL1       -0.0222
     34 N         140.0806  140.7922  170.7351 N.ar    1  UNL1       -0.0359
@<TRIPOS>BOND
     1    13    14    1
     2    14    15   ar
     3     1    15    1
     4     1     2    1
     5     2     3    1
     6     3     4    1
     7     4     5    1
     8     5     6    1
     9     6     7   am
    10     7     8    2
    11     7    23    1
    12    23    24    1
    13    24    25   ar
    14    25    26   ar
    15    26    27   ar
    16    27    30    1
    17    30    31   ar
    18    31    32   ar
    19    32    33   ar
    20    33    34   ar
    21    27    28   ar
    22    28    29   ar
    23     6     9    1
    24    10     9    1
    25    10    11    1
    26    11    12    1
    27    15    16   ar
    28    16    17   ar
    29    17    18   ar
    30    18    19    1
    31    18    20   ar
    32    20    21    1
    33    21    22    3
    34    20    14   ar
    35    12     1    1
    36    10     3    1
    37    29    24   ar
    38    34    30   ar
@<TRIPOS>MOLECULE
*****
 34 38 0 0 0
SMALL
GASTEIGER

@<TRIPOS>ATOM
      1 C         142.3387  142.4093  165.8325 C.3     1  UNL1        0.1531
      2 C         143.3658  141.7021  164.9989 C.3     1  UNL1        0.1067
      3 N         143.4980  142.0233  163.5397 N.3     1  UNL1       -0.2665
      4 C         144.5252  141.3161  162.7061 C.3     1  UNL1        0.0940
      5 C         144.6573  141.6373  161.2469 C.3     1  UNL1        0.1107
      6 N         143.7624  142.6656  160.6212 N.am    1  UNL1       -0.2764
      7 C         143.8946  142.9868  159.1619 C.2     1  UNL1        0.2303
      8 O         142.9996  144.0152  158.5363 O.2     1  UNL1       -0.2745
      9 C         142.7352  143.3728  161.4548 C.3     1  UNL1        0.1119
     10 C         142.6030  143.0516  162.9141 C.3     1  UNL1        0.1075
     11 C         141.5759  143.7588  163.7476 C.3     1  UNL1        0.1601
     12 O         141.4437  143.4376  165.2068 O.3     1  UNL1       -0.3489
     13 C         139.8141  141.1660  166.8721 C.3     1  UNL1        0.0316
     14 C         140.9442  141.4665  167.8115 C.ar    1  UNL1       -0.0117
     15 C         142.2065  142.0881  167.2918 C.ar    1  UNL1        0.0027
     16 C         143.3366  142.3886  168.2312 C.ar    1  UNL1        0.0001
     17 C         143.2045  142.0675  169.6904 C.ar    1  UNL1        0.0301
     18 C         141.9421  141.4458  170.2103 C.ar    1  UNL1        0.1493
     19 F         141.8100  141.1247  171.6695 F       1  UNL1       -0.2035
     20 C         140.8120  141.1453  169.2708 C.ar    1  UNL1        0.0916
     21 C         139.5498  140.5236  169.7906 C.1     1  UNL1        0.1024
     22 N         138.2875  139.9020  170.3104 N.1     1  UNL1       -0.1908
     23 C         144.9217  142.2796  158.3284 C.3     1  UNL1        0.1146
     24 C         144.5616  141.0136  157.6092 C.ar    1  UNL1        0.0254
     25 C         143.4495  140.1486  158.1244 C.ar    1  UNL1        0.0998
     26 N         143.0893  138.8826  157.4051 N.ar    1  UNL1       -0.2086
     27 C         143.8412  138.4814  156.1707 C.ar    1  UNL1        0.2559
     28 N         144.9532  139.3462  155.6556 N.ar    1  UNL1       -0.2086
     29 C         145.3134  140.6123  156.3748 C.ar    1  UNL1        0.0998
     30 N         143.4810  137.2153  155.4515 N.ar    1  UNL1       -0.1544
     31 C         142.4638  137.0817  154.3572 C.ar    1  UNL1        0.2287
     32 N         142.4290  135.6443  153.9297 N.ar    1  UNL1       -0.1044
     33 N         143.4247  134.8895  154.7598 N.ar    1  UNL1       -0.0222
     34 N         144.0749  135.8604  155.7003 N.ar    1  UNL1       -0.0359
@<TRIPOS>BOND
     1    13    14    1
     2    14    15   ar
     3     1    15    1
     4     1     2    1
     5     2     3    1
     6     3     4    1
     7     4     5    1
     8     5     6    1
     9     6     7   am
    10     7     8    2
    11     7    23    1
    12    23    24    1
    13    24    25   ar
    14    25    26   ar
    15    26    27   ar
    16    27    30    1
    17    30    31   ar
    18    31    32   ar
    19    32    33   ar
    20    33    34   ar
    21    27    28   ar
    22    28    29   ar
    23     6     9    1
    24    10     9    1
    25    10    11    1
    26    11    12    1
    27    15    16   ar
    28    16    17   ar
    29    17    18   ar
    30    18    19    1
    31    18    20   ar
    32    20    21    1
    33    21    22    3
    34    20    14   ar
    35    12     1    1
    36    10     3    1
    37    29    24   ar
    38    34    30   ar
@<TRIPOS>MOLECULE
*****
 34 38 0 0 0
SMALL
GASTEIGER

@<TRIPOS>ATOM
      1 C         142.5021  140.6217  163.9341 C.3     1  UNL1        0.1531
      2 C         141.5308  139.9062  163.0428 C.3     1  UNL1        0.1067
      3 N         141.8965  139.6124  161.6180 N.3     1  UNL1       -0.2665
      4 C         140.9252  138.8968  160.7266 C.3     1  UNL1        0.0940
      5 C         141.2910  138.6030  159.3019 C.3     1  UNL1        0.1107
      6 N         142.6280  139.0248  158.7685 N.am    1  UNL1       -0.2764
      7 C         142.9937  138.7310  157.3437 C.2     1  UNL1        0.2303
      8 O         144.3308  139.1528  156.8103 O.2     1  UNL1       -0.2745
      9 C         143.5993  139.7404  159.6599 C.3     1  UNL1        0.1119
     10 C         143.2336  140.0342  161.0847 C.3     1  UNL1        0.1075
     11 C         144.2048  140.7497  161.9760 C.3     1  UNL1        0.1601
     12 O         143.8391  141.0435  163.4008 O.3     1  UNL1       -0.3489
     13 C         143.2690  138.7001  166.1065 C.3     1  UNL1        0.0316
     14 C         142.5198  139.9547  166.4451 C.ar    1  UNL1       -0.0117
     15 C         142.1363  140.9155  165.3589 C.ar    1  UNL1        0.0027
     16 C         141.3872  142.1702  165.6975 C.ar    1  UNL1        0.0001
     17 C         141.0214  142.4640  167.1222 C.ar    1  UNL1        0.0301
     18 C         141.4049  141.5032  168.2085 C.ar    1  UNL1        0.1493
     19 F         141.0392  141.7970  169.6332 F       1  UNL1       -0.2035
     20 C         142.1541  140.2485  167.8699 C.ar    1  UNL1        0.0916
     21 C         142.5375  139.2877  168.9560 C.1     1  UNL1        0.1024
     22 N         142.9210  138.3269  170.0422 N.1     1  UNL1       -0.1908
     23 C         142.0225  138.0155  156.4523 C.3     1  UNL1        0.1146
     24 C         142.0720  136.5208  156.3362 C.ar    1  UNL1        0.0254
     25 C         141.1910  135.8157  155.3479 C.ar    1  UNL1        0.0998
     26 N         141.2405  134.3211  155.2318 N.ar    1  UNL1       -0.2086
     27 C         142.1709  133.5314  156.1040 C.ar    1  UNL1        0.2559
     28 N         143.0519  134.2365  157.0923 N.ar    1  UNL1       -0.2086
     29 C         143.0024  135.7312  157.2084 C.ar    1  UNL1        0.0998
     30 N         142.2204  132.0368  155.9879 N.ar    1  UNL1       -0.1544
     31 C         143.1381  131.1235  156.7454 C.ar    1  UNL1        0.2287
     32 N         142.8457  129.7152  156.3196 N.ar    1  UNL1       -0.1044
     33 N         141.7474  129.7581  155.2988 N.ar    1  UNL1       -0.0222
     34 N         141.3610  131.1929  155.0938 N.ar    1  UNL1       -0.0359
@<TRIPOS>BOND
     1    13    14    1
     2    14    15   ar
     3     1    15    1
     4     1     2    1
     5     2     3    1
     6     3     4    1
     7     4     5    1
     8     5     6    1
     9     6     7   am
    10     7     8    2
    11     7    23    1
    12    23    24    1
    13    24    25   ar
    14    25    26   ar
    15    26    27   ar
    16    27    30    1
    17    30    31   ar
    18    31    32   ar
    19    32    33   ar
    20    33    34   ar
    21    27    28   ar
    22    28    29   ar
    23     6     9    1
    24    10     9    1
    25    10    11    1
    26    11    12    1
    27    15    16   ar
    28    16    17   ar
    29    17    18   ar
    30    18    19    1
    31    18    20   ar
    32    20    21    1
    33    21    22    3
    34    20    14   ar
    35    12     1    1
    36    10     3    1
    37    29    24   ar
    38    34    30   ar
@<TRIPOS>MOLECULE
*****
 34 38 0 0 0
SMALL
GASTEIGER

@<TRIPOS>ATOM
      1 C         142.1620  140.5750  165.8317 C.3     1  UNL1        0.1531
      2 C         142.2476  141.6483  164.7873 C.3     1  UNL1        0.1067
      3 N         142.5545  141.2871  163.3642 N.3     1  UNL1       -0.2665
      4 C         142.6401  142.3605  162.3198 C.3     1  UNL1        0.0940
      5 C         142.9470  141.9994  160.8967 C.3     1  UNL1        0.1107
      6 N         143.1683  140.5650  160.5178 N.am    1  UNL1       -0.2764
      7 C         143.4751  140.2039  159.0946 C.2     1  UNL1        0.2303
      8 O         143.6964  138.7695  158.7158 O.2     1  UNL1       -0.2745
      9 C         143.0827  139.4917  161.5621 C.3     1  UNL1        0.1119
     10 C         142.7758  139.8527  162.9854 C.3     1  UNL1        0.1075
     11 C         142.6902  138.7794  164.0297 C.3     1  UNL1        0.1601
     12 O         142.3833  139.1405  165.4528 O.3     1  UNL1       -0.3489
     13 C         139.6102  139.6375  167.1003 C.3     1  UNL1        0.0316
     14 C         140.5792  140.4673  167.8892 C.ar    1  UNL1       -0.0117
     15 C         141.8551  140.9360  167.2549 C.ar    1  UNL1        0.0027
     16 C         142.8242  141.7658  168.0438 C.ar    1  UNL1        0.0001
     17 C         142.5174  142.1269  169.4669 C.ar    1  UNL1        0.0301
     18 C         141.2414  141.6582  170.1013 C.ar    1  UNL1        0.1493
     19 F         140.9346  142.0193  171.5245 F       1  UNL1       -0.2035
     20 C         140.2724  140.8284  169.3124 C.ar    1  UNL1        0.0916
     21 C         138.9965  140.3597  169.9467 C.1     1  UNL1        0.1024
     22 N         137.7206  139.8909  170.5810 N.1     1  UNL1       -0.1908
     23 C         143.5607  141.2772  158.0503 C.3     1  UNL1        0.1146
     24 C         144.8354  141.4801  157.2861 C.ar    1  UNL1        0.0254
     25 C         145.8177  142.5235  157.7296 C.ar    1  UNL1        0.0998
     26 N         147.0924  142.7264  156.9654 N.ar    1  UNL1       -0.2086
     27 C         147.3849  141.8860  155.7579 C.ar    1  UNL1        0.2559
     28 N         146.4027  140.8427  155.3144 N.ar    1  UNL1       -0.2086
     29 C         145.1279  140.6397  156.0786 C.ar    1  UNL1        0.0998
     30 N         148.6596  142.0889  154.9937 N.ar    1  UNL1       -0.1544
     31 C         148.8157  142.8928  153.7369 C.ar    1  UNL1        0.2287
     32 N         150.2547  142.8243  153.3186 N.ar    1  UNL1       -0.1044
     33 N         150.9878  141.9781  154.3170 N.ar    1  UNL1       -0.0222
     34 N         150.0020  141.5237  155.3522 N.ar    1  UNL1       -0.0359
@<TRIPOS>BOND
     1    13    14    1
     2    14    15   ar
     3     1    15    1
     4     1     2    1
     5     2     3    1
     6     3     4    1
     7     4     5    1
     8     5     6    1
     9     6     7   am
    10     7     8    2
    11     7    23    1
    12    23    24    1
    13    24    25   ar
    14    25    26   ar
    15    26    27   ar
    16    27    30    1
    17    30    31   ar
    18    31    32   ar
    19    32    33   ar
    20    33    34   ar
    21    27    28   ar
    22    28    29   ar
    23     6     9    1
    24    10     9    1
    25    10    11    1
    26    11    12    1
    27    15    16   ar
    28    16    17   ar
    29    17    18   ar
    30    18    19    1
    31    18    20   ar
    32    20    21    1
    33    21    22    3
    34    20    14   ar
    35    12     1    1
    36    10     3    1
    37    29    24   ar
    38    34    30   ar
@<TRIPOS>MOLECULE
*****
 34 38 0 0 0
SMALL
GASTEIGER

@<TRIPOS>ATOM
      1 C         142.8474  140.2474  165.2191 C.3     1  UNL1        0.1531
      2 C         141.9445  139.5001  164.2829 C.3     1  UNL1        0.1067
      3 N         142.2849  139.4103  162.8248 N.3     1  UNL1       -0.2665
      4 C         141.3820  138.6631  161.8885 C.3     1  UNL1        0.0940
      5 C         141.7224  138.5732  160.4305 C.3     1  UNL1        0.1107
      6 N         142.9655  139.2306  159.9086 N.am    1  UNL1       -0.2764
      7 C         143.3059  139.1407  158.4504 C.2     1  UNL1        0.2303
      8 O         144.5490  139.7980  157.9285 O.2     1  UNL1       -0.2745
      9 C         143.8684  139.9778  160.8448 C.3     1  UNL1        0.1119
     10 C         143.5281  140.0677  162.3029 C.3     1  UNL1        0.1075
     11 C         144.4309  140.8149  163.2391 C.3     1  UNL1        0.1601
     12 O         144.0906  140.9047  164.6972 O.3     1  UNL1       -0.3489
     13 C         141.5207  142.7111  166.3008 C.3     1  UNL1        0.0316
     14 C         141.8437  141.5691  167.2181 C.ar    1  UNL1       -0.0117
     15 C         142.5071  140.3372  166.6773 C.ar    1  UNL1        0.0027
     16 C         142.8301  139.1952  167.5946 C.ar    1  UNL1        0.0001
     17 C         142.4899  139.2851  169.0527 C.ar    1  UNL1        0.0301
     18 C         141.8265  140.5169  169.5935 C.ar    1  UNL1        0.1493
     19 F         141.4862  140.6068  171.0516 F       1  UNL1       -0.2035
     20 C         141.5034  141.6590  168.6762 C.ar    1  UNL1        0.0916
     21 C         140.8401  142.8908  169.2170 C.1     1  UNL1        0.1024
     22 N         140.1767  144.1226  169.7578 N.1     1  UNL1       -0.1908
     23 C         142.4030  138.3935  157.5142 C.3     1  UNL1        0.1146
     24 C         142.7731  137.0137  157.0570 C.ar    1  UNL1        0.0254
     25 C         142.9478  136.7298  155.5945 C.ar    1  UNL1        0.0998
     26 N         143.3179  135.3499  155.1373 N.ar    1  UNL1       -0.2086
     27 C         143.5133  134.2539  156.1426 C.ar    1  UNL1        0.2559
     28 N         143.3386  134.5378  157.6050 N.ar    1  UNL1       -0.2086
     29 C         142.9685  135.9177  158.0623 C.ar    1  UNL1        0.0998
     30 N         143.8834  132.8741  155.6854 N.ar    1  UNL1       -0.1544
     31 C         143.2807  132.1383  154.5254 C.ar    1  UNL1        0.2287
     32 N         143.9460  130.7972  154.4310 N.ar    1  UNL1       -0.1044
     33 N         144.9599  130.7042  155.5326 N.ar    1  UNL1       -0.0222
     34 N         144.9212  131.9877  156.3078 N.ar    1  UNL1       -0.0359
@<TRIPOS>BOND
     1    13    14    1
     2    14    15   ar
     3     1    15    1
     4     1     2    1
     5     2     3    1
     6     3     4    1
     7     4     5    1
     8     5     6    1
     9     6     7   am
    10     7     8    2
    11     7    23    1
    12    23    24    1
    13    24    25   ar
    14    25    26   ar
    15    26    27   ar
    16    27    30    1
    17    30    31   ar
    18    31    32   ar
    19    32    33   ar
    20    33    34   ar
    21    27    28   ar
    22    28    29   ar
    23     6     9    1
    24    10     9    1
    25    10    11    1
    26    11    12    1
    27    15    16   ar
    28    16    17   ar
    29    17    18   ar
    30    18    19    1
    31    18    20   ar
    32    20    21    1
    33    21    22    3
    34    20    14   ar
    35    12     1    1
    36    10     3    1
    37    29    24   ar
    38    34    30   ar
@<TRIPOS>MOLECULE
*****
 34 38 0 0 0
SMALL
GASTEIGER

@<TRIPOS>ATOM
      1 C         141.3546  140.4101  164.4504 C.3     1  UNL1        0.1531
      2 C         142.4265  139.6014  163.7820 C.3     1  UNL1        0.1067
      3 N         142.2792  139.2046  162.3429 N.3     1  UNL1       -0.2665
      4 C         143.3512  138.3958  161.6744 C.3     1  UNL1        0.0940
      5 C         143.2039  137.9991  160.2354 C.3     1  UNL1        0.1107
      6 N         141.9846  138.4110  159.4648 N.am    1  UNL1       -0.2764
      7 C         141.8374  138.0142  158.0257 C.2     1  UNL1        0.2303
      8 O         140.6182  138.4262  157.2552 O.2     1  UNL1       -0.2745
      9 C         140.9127  139.2198  160.1333 C.3     1  UNL1        0.1119
     10 C         141.0600  139.6166  161.5724 C.3     1  UNL1        0.1075
     11 C         139.9880  140.4253  162.2408 C.3     1  UNL1        0.1601
     12 O         140.1353  140.8221  163.6798 O.3     1  UNL1       -0.3489
     13 C         139.3080  139.5392  166.4636 C.3     1  UNL1        0.0316
     14 C         140.4785  140.3715  166.8961 C.ar    1  UNL1       -0.0117
     15 C         141.5018  140.8069  165.8895 C.ar    1  UNL1        0.0027
     16 C         142.6724  141.6392  166.3220 C.ar    1  UNL1        0.0001
     17 C         142.8197  142.0360  167.7610 C.ar    1  UNL1        0.0301
     18 C         141.7964  141.6006  168.7676 C.ar    1  UNL1        0.1493
     19 F         141.9437  141.9974  170.2066 F       1  UNL1       -0.2035
     20 C         140.6258  140.7683  168.3352 C.ar    1  UNL1        0.0916
     21 C         139.6025  140.3328  169.3417 C.1     1  UNL1        0.1024
     22 N         138.5792  139.8973  170.3483 N.1     1  UNL1       -0.1908
     23 C         142.9093  137.2055  157.3573 C.3     1  UNL1        0.1146
     24 C         142.6211  135.8036  156.9083 C.ar    1  UNL1        0.0254
     25 C         141.6979  135.5616  155.7510 C.ar    1  UNL1        0.0998
     26 N         141.4096  134.1598  155.3020 N.ar    1  UNL1       -0.2086
     27 C         142.0445  132.9999  156.0101 C.ar    1  UNL1        0.2559
     28 N         142.9677  133.2418  157.1674 N.ar    1  UNL1       -0.2086
     29 C         143.2560  134.6437  157.6164 C.ar    1  UNL1        0.0998
     30 N         141.7563  131.5980  155.5611 N.ar    1  UNL1       -0.1544
     31 C         142.5543  130.3777  155.9133 C.ar    1  UNL1        0.2287
     32 N         141.9106  129.1957  155.2509 N.ar    1  UNL1       -0.1044
     33 N         140.7147  129.6856  154.4893 N.ar    1  UNL1       -0.0222
     34 N         140.6193  131.1702  154.6810 N.ar    1  UNL1       -0.0359
@<TRIPOS>BOND
     1    13    14    1
     2    14    15   ar
     3     1    15    1
     4     1     2    1
     5     2     3    1
     6     3     4    1
     7     4     5    1
     8     5     6    1
     9     6     7   am
    10     7     8    2
    11     7    23    1
    12    23    24    1
    13    24    25   ar
    14    25    26   ar
    15    26    27   ar
    16    27    30    1
    17    30    31   ar
    18    31    32   ar
    19    32    33   ar
    20    33    34   ar
    21    27    28   ar
    22    28    29   ar
    23     6     9    1
    24    10     9    1
    25    10    11    1
    26    11    12    1
    27    15    16   ar
    28    16    17   ar
    29    17    18   ar
    30    18    19    1
    31    18    20   ar
    32    20    21    1
    33    21    22    3
    34    20    14   ar
    35    12     1    1
    36    10     3    1
    37    29    24   ar
    38    34    30   ar
@<TRIPOS>MOLECULE
*****
 34 38 0 0 0
SMALL
GASTEIGER

@<TRIPOS>ATOM
      1 C         140.1716  140.9250  164.3505 C.3     1  UNL1        0.1531
      2 C         139.1062  141.4820  163.4535 C.3     1  UNL1        0.1067
      3 N         139.3700  141.6421  161.9856 N.3     1  UNL1       -0.2665
      4 C         138.3046  142.1992  161.0885 C.3     1  UNL1        0.0940
      5 C         138.5683  142.3592  159.6206 C.3     1  UNL1        0.1107
      6 N         139.8974  141.9622  159.0497 N.am    1  UNL1       -0.2764
      7 C         140.1611  142.1223  157.5817 C.2     1  UNL1        0.2303
      8 O         141.4902  141.7253  157.0108 O.2     1  UNL1       -0.2745
      9 C         140.9628  141.4052  159.9467 C.3     1  UNL1        0.1119
     10 C         140.6991  141.2451  161.4147 C.3     1  UNL1        0.1075
     11 C         141.7644  140.6880  162.3117 C.3     1  UNL1        0.1601
     12 O         141.5007  140.5280  163.7796 O.3     1  UNL1       -0.3489
     13 C         141.1922  142.9735  166.2900 C.3     1  UNL1        0.0316
     14 C         140.4182  141.7891  166.7882 C.ar    1  UNL1       -0.0117
     15 C         139.9079  140.7649  165.8184 C.ar    1  UNL1        0.0027
     16 C         139.1338  139.5805  166.3166 C.ar    1  UNL1        0.0001
     17 C         138.8701  139.4204  167.7845 C.ar    1  UNL1        0.0301
     18 C         139.3805  140.4447  168.7543 C.ar    1  UNL1        0.1493
     19 F         139.1167  140.2845  170.2222 F       1  UNL1       -0.2035
     20 C         140.1545  141.6290  168.2562 C.ar    1  UNL1        0.0916
     21 C         140.6648  142.6533  169.2259 C.1     1  UNL1        0.1024
     22 N         141.1751  143.6775  170.1957 N.1     1  UNL1       -0.1908
     23 C         139.0958  142.6794  156.6847 C.3     1  UNL1        0.1146
     24 C         139.0630  144.1481  156.3817 C.ar    1  UNL1        0.0254
     25 C         138.0931  144.6838  155.3705 C.ar    1  UNL1        0.0998
     26 N         138.0603  146.1525  155.0675 N.ar    1  UNL1       -0.2086
     27 C         138.9973  147.0855  155.7756 C.ar    1  UNL1        0.2559
     28 N         139.9671  146.5498  156.7867 N.ar    1  UNL1       -0.2086
     29 C         140.0000  145.0811  157.0898 C.ar    1  UNL1        0.0998
     30 N         138.9645  148.5542  155.4726 N.ar    1  UNL1       -0.1544
     31 C         139.6208  149.2283  154.3043 C.ar    1  UNL1        0.2287
     32 N         139.3316  150.6975  154.3943 N.ar    1  UNL1       -0.1044
     33 N         138.4964  150.9313  155.6183 N.ar    1  UNL1       -0.0222
     34 N         138.2696  149.6067  156.2846 N.ar    1  UNL1       -0.0359
@<TRIPOS>BOND
     1    13    14    1
     2    14    15   ar
     3     1    15    1
     4     1     2    1
     5     2     3    1
     6     3     4    1
     7     4     5    1
     8     5     6    1
     9     6     7   am
    10     7     8    2
    11     7    23    1
    12    23    24    1
    13    24    25   ar
    14    25    26   ar
    15    26    27   ar
    16    27    30    1
    17    30    31   ar
    18    31    32   ar
    19    32    33   ar
    20    33    34   ar
    21    27    28   ar
    22    28    29   ar
    23     6     9    1
    24    10     9    1
    25    10    11    1
    26    11    12    1
    27    15    16   ar
    28    16    17   ar
    29    17    18   ar
    30    18    19    1
    31    18    20   ar
    32    20    21    1
    33    21    22    3
    34    20    14   ar
    35    12     1    1
    36    10     3    1
    37    29    24   ar
    38    34    30   ar
@<TRIPOS>MOLECULE
*****
 34 38 0 0 0
SMALL
GASTEIGER

@<TRIPOS>ATOM
      1 C         140.4129  138.8047  158.0817 C.3     1  UNL1        0.1531
      2 C         139.8688  138.3453  159.4019 C.3     1  UNL1        0.1067
      3 N         140.7154  138.4416  160.6364 N.3     1  UNL1       -0.2665
      4 C         140.1713  137.9822  161.9566 C.3     1  UNL1        0.0940
      5 C         141.0179  138.0784  163.1911 C.3     1  UNL1        0.1107
      6 N         142.4086  138.6340  163.1054 N.am    1  UNL1       -0.2764
      7 C         143.2552  138.7302  164.3400 C.2     1  UNL1        0.2303
      8 O         144.6459  139.2858  164.2543 O.2     1  UNL1       -0.2745
      9 C         142.9527  139.0933  161.7853 C.3     1  UNL1        0.1119
     10 C         142.1061  138.9971  160.5507 C.3     1  UNL1        0.1075
     11 C         142.6502  139.4565  159.2305 C.3     1  UNL1        0.1601
     12 O         141.8036  139.3602  157.9960 O.3     1  UNL1       -0.3489
     13 C         138.8063  141.1710  157.1764 C.3     1  UNL1        0.0316
     14 C         138.7631  139.8916  156.3945 C.ar    1  UNL1       -0.0117
     15 C         139.5664  138.7085  156.8471 C.ar    1  UNL1        0.0027
     16 C         139.5231  137.4291  156.0652 C.ar    1  UNL1        0.0001
     17 C         138.6766  137.3329  154.8307 C.ar    1  UNL1        0.0301
     18 C         137.8732  138.5160  154.3781 C.ar    1  UNL1        0.1493
     19 F         137.0267  138.4198  153.1435 F       1  UNL1       -0.2035
     20 C         137.9165  139.7954  155.1600 C.ar    1  UNL1        0.0916
     21 C         137.1132  140.9785  154.7073 C.1     1  UNL1        0.1024
     22 N         136.3099  142.1616  154.2547 N.1     1  UNL1       -0.1908
     23 C         142.7111  138.2709  165.6602 C.3     1  UNL1        0.1146
     24 C         142.1148  139.2647  166.6123 C.ar    1  UNL1        0.0254
     25 C         140.6670  139.6395  166.4959 C.ar    1  UNL1        0.0998
     26 N         140.0707  140.6334  167.4480 N.ar    1  UNL1       -0.2086
     27 C         140.9221  141.2525  168.5166 C.ar    1  UNL1        0.2559
     28 N         142.3698  140.8777  168.6330 N.ar    1  UNL1       -0.2086
     29 C         142.9662  139.8838  167.6809 C.ar    1  UNL1        0.0998
     30 N         140.3257  142.2464  169.4687 N.ar    1  UNL1       -0.1544
     31 C         140.6035  143.7202  169.4932 C.ar    1  UNL1        0.2287
     32 N         139.7963  144.3257  170.6032 N.ar    1  UNL1       -0.1044
     33 N         139.0197  143.2259  171.2647 N.ar    1  UNL1       -0.0222
     34 N         139.3469  141.9409  170.5636 N.ar    1  UNL1       -0.0359
@<TRIPOS>BOND
     1    13    14    1
     2    14    15   ar
     3     1    15    1
     4     1     2    1
     5     2     3    1
     6     3     4    1
     7     4     5    1
     8     5     6    1
     9     6     7   am
    10     7     8    2
    11     7    23    1
    12    23    24    1
    13    24    25   ar
    14    25    26   ar
    15    26    27   ar
    16    27    30    1
    17    30    31   ar
    18    31    32   ar
    19    32    33   ar
    20    33    34   ar
    21    27    28   ar
    22    28    29   ar
    23     6     9    1
    24    10     9    1
    25    10    11    1
    26    11    12    1
    27    15    16   ar
    28    16    17   ar
    29    17    18   ar
    30    18    19    1
    31    18    20   ar
    32    20    21    1
    33    21    22    3
    34    20    14   ar
    35    12     1    1
    36    10     3    1
    37    29    24   ar
    38    34    30   ar
