@<TRIPOS>MOLECULE
*****
 31 32 0 0 0
SMALL
GASTEIGER

@<TRIPOS>ATOM
      1 N         138.0654  143.0252  162.7978 N.3     1  UNL1       -0.2712
      2 C         137.9504  142.4419  161.4207 C.3     1  UNL1        0.0721
      3 C         137.9601  140.9537  161.2333 C.3     1  UNL1        0.0174
      4 C         138.0849  140.0487  162.4230 C.3     1  UNL1        0.0045
      5 C         138.2000  140.6320  163.8001 C.3     1  UNL1        0.0356
      6 C         138.1902  142.1202  163.9875 C.3     1  UNL1        0.0738
      7 C         138.0556  144.5134  162.9852 C.3     1  UNL1        0.0937
      8 C         139.1972  145.3412  162.4738 C.3     1  UNL1        0.1082
      9 N         142.7548  144.6009  164.0692 N.am    1  UNL1       -0.2921
     10 C         141.5115  144.4467  163.2443 C.2     1  UNL1        0.3007
     11 O         141.3393  143.2438  162.3649 O.2     1  UNL1       -0.2528
     12 N         140.4404  145.4954  163.2988 N.am    1  UNL1       -0.2875
     13 H         142.8678  145.3904  164.6464 H       1  UNL1        0.1508
     14 H         140.5534  146.2850  163.8759 H       1  UNL1        0.1510
     15 C         143.2826  142.9323  165.2680 C.3     1  UNL1        0.0197
     16 C         143.8258  143.5522  164.0148 C.3     1  UNL1        0.0583
     17 C         144.3691  144.1721  162.7616 C.3     1  UNL1        0.0197
     18 C         144.8970  142.5034  163.9604 C.3     1  UNL1        0.0197
     19 C         138.3248  139.7271  164.9899 C.3     1  UNL1        0.0910
     20 N         138.8428  140.2654  166.2906 N.am    1  UNL1       -0.3008
     21 C         140.3202  140.4046  166.5096 C.2     1  UNL1        0.2459
     22 O         141.2796  140.0054  165.4278 O.2     1  UNL1       -0.2701
     23 H         138.2131  140.5274  167.0006 H       1  UNL1        0.1497
     24 C         140.8382  140.9430  167.8103 C.ar    1  UNL1        0.0550
     25 C         140.4460  142.3185  168.2620 C.ar    1  UNL1        0.0160
     26 C         140.9640  142.8569  169.5627 C.ar    1  UNL1        0.0587
     27 CL        140.5719  144.2324  170.0144 Cl      1  UNL1       -0.0822
     28 C         141.8742  142.0197  170.4117 C.ar    1  UNL1        0.0228
     29 C         142.2664  140.6441  169.9599 C.ar    1  UNL1        0.0587
     30 CL        143.1765  139.8070  170.8089 Cl      1  UNL1       -0.0822
     31 C         141.7483  140.1058  168.6592 C.ar    1  UNL1        0.0160
@<TRIPOS>BOND
     1    15    16    1
     2    16    17    1
     3    16    18    1
     4    16     9    1
     5     9    10   am
     6    10    11    2
     7    10    12   am
     8    12     8    1
     9     8     7    1
    10     7     1    1
    11     1     2    1
    12     2     3    1
    13     3     4    1
    14     4     5    1
    15     5    19    1
    16    19    20    1
    17    20    21   am
    18    21    22    2
    19    21    24    1
    20    24    25   ar
    21    25    26   ar
    22    26    27    1
    23    26    28   ar
    24    28    29   ar
    25    29    30    1
    26    29    31   ar
    27     5     6    1
    28     6     1    1
    29    31    24   ar
    30     9    13    1
    31    12    14    1
    32    20    23    1
@<TRIPOS>MOLECULE
*****
 31 32 0 0 0
SMALL
GASTEIGER

@<TRIPOS>ATOM
      1 N         144.3364  140.9641  162.2748 N.3     1  UNL1       -0.2712
      2 C         144.2914  140.2003  160.9847 C.3     1  UNL1        0.0721
      3 C         143.6877  138.8277  160.9464 C.3     1  UNL1        0.0174
      4 C         143.1291  138.2188  162.1982 C.3     1  UNL1        0.0045
      5 C         143.1741  138.9826  163.4884 C.3     1  UNL1        0.0356
      6 C         143.7778  140.3552  163.5267 C.3     1  UNL1        0.0738
      7 C         144.9401  142.3367  162.3132 C.3     1  UNL1        0.0937
      8 C         144.2603  143.4749  161.6114 C.3     1  UNL1        0.1082
      9 N         141.0912  145.0099  163.4419 N.am    1  UNL1       -0.2921
     10 C         141.9611  144.0640  162.6682 C.2     1  UNL1        0.3007
     11 O         141.4019  142.7615  162.1777 O.2     1  UNL1       -0.2528
     12 N         143.3904  144.4207  162.3851 N.am    1  UNL1       -0.2875
     13 H         141.4582  145.8648  163.7638 H       1  UNL1        0.1508
     14 H         143.7574  145.2757  162.7070 H       1  UNL1        0.1510
     15 C         139.2489  145.2764  162.4247 C.3     1  UNL1        0.0197
     16 C         139.6620  144.6532  163.7250 C.3     1  UNL1        0.0583
     17 C         140.0752  144.0301  165.0254 C.3     1  UNL1        0.0197
     18 C         138.2328  144.2965  164.0082 C.3     1  UNL1        0.0197
     19 C         142.6155  138.3738  164.7403 C.3     1  UNL1        0.0910
     20 N         141.9912  139.2492  165.7861 N.am    1  UNL1       -0.3008
     21 C         142.5080  139.2210  167.1941 C.2     1  UNL1        0.2459
     22 O         143.6491  138.3172  167.5561 O.2     1  UNL1       -0.2701
     23 H         141.2422  139.8424  165.5485 H       1  UNL1        0.1497
     24 C         141.8837  140.0964  168.2399 C.ar    1  UNL1        0.0550
     25 C         140.4767  139.8388  168.6914 C.ar    1  UNL1        0.0160
     26 C         139.8524  140.7142  169.7372 C.ar    1  UNL1        0.0587
     27 CL        138.4453  140.4565  170.1887 Cl      1  UNL1       -0.0822
     28 C         140.6351  141.8474  170.3315 C.ar    1  UNL1        0.0228
     29 C         142.0422  142.1051  169.8801 C.ar    1  UNL1        0.0587
     30 CL        142.8249  143.2382  170.4744 Cl      1  UNL1       -0.0822
     31 C         142.6664  141.2296  168.8342 C.ar    1  UNL1        0.0160
@<TRIPOS>BOND
     1    15    16    1
     2    16    17    1
     3    16    18    1
     4    16     9    1
     5     9    10   am
     6    10    11    2
     7    10    12   am
     8    12     8    1
     9     8     7    1
    10     7     1    1
    11     1     2    1
    12     2     3    1
    13     3     4    1
    14     4     5    1
    15     5    19    1
    16    19    20    1
    17    20    21   am
    18    21    22    2
    19    21    24    1
    20    24    25   ar
    21    25    26   ar
    22    26    27    1
    23    26    28   ar
    24    28    29   ar
    25    29    30    1
    26    29    31   ar
    27     5     6    1
    28     6     1    1
    29    31    24   ar
    30     9    13    1
    31    12    14    1
    32    20    23    1
@<TRIPOS>MOLECULE
*****
 31 32 0 0 0
SMALL
GASTEIGER

@<TRIPOS>ATOM
      1 N         139.1588  142.8961  159.7779 N.3     1  UNL1       -0.2712
      2 C         138.9790  141.8078  158.7614 C.3     1  UNL1        0.0721
      3 C         138.2745  140.5383  159.1384 C.3     1  UNL1        0.0174
      4 C         137.7497  140.3572  160.5318 C.3     1  UNL1        0.0045
      5 C         137.9294  141.4454  161.5483 C.3     1  UNL1        0.0356
      6 C         138.6340  142.7149  161.1714 C.3     1  UNL1        0.0738
      7 C         139.8634  144.1655  159.4010 C.3     1  UNL1        0.0937
      8 C         140.3320  145.1088  160.4690 C.3     1  UNL1        0.1082
      9 N         143.8073  144.3592  162.2326 N.am    1  UNL1       -0.2921
     10 C         142.3505  144.2862  161.8829 C.2     1  UNL1        0.3007
     11 O         141.4553  143.3177  162.5974 O.2     1  UNL1       -0.2528
     12 N         141.7888  145.1818  160.8187 N.am    1  UNL1       -0.2875
     13 H         144.3948  144.9949  161.7636 H       1  UNL1        0.1508
     14 H         142.3763  145.8175  160.3497 H       1  UNL1        0.1510
     15 C         143.9398  144.4438  164.3480 C.3     1  UNL1        0.0197
     16 C         144.3690  143.4637  163.2968 C.3     1  UNL1        0.0583
     17 C         144.7981  142.4836  162.2455 C.3     1  UNL1        0.0197
     18 C         144.9307  142.5681  164.3610 C.3     1  UNL1        0.0197
     19 C         137.4046  141.2643  162.9418 C.3     1  UNL1        0.0910
     20 N         138.3563  141.2024  164.0995 N.am    1  UNL1       -0.3008
     21 C         138.9573  139.8898  164.5071 C.2     1  UNL1        0.2459
     22 O         138.6065  138.6392  163.7569 O.2     1  UNL1       -0.2701
     23 H         138.5866  142.0233  164.5919 H       1  UNL1        0.1497
     24 C         139.9090  139.8280  165.6648 C.ar    1  UNL1        0.0550
     25 C         139.4983  140.3669  167.0030 C.ar    1  UNL1        0.0160
     26 C         140.4500  140.3050  168.1608 C.ar    1  UNL1        0.0587
     27 CL        140.0393  140.8440  169.4990 Cl      1  UNL1       -0.0822
     28 C         141.8126  139.7042  167.9803 C.ar    1  UNL1        0.0228
     29 C         142.2233  139.1652  166.6421 C.ar    1  UNL1        0.0587
     30 CL        143.5858  138.5644  166.4616 Cl      1  UNL1       -0.0822
     31 C         141.2715  139.2271  165.4843 C.ar    1  UNL1        0.0160
@<TRIPOS>BOND
     1    15    16    1
     2    16    17    1
     3    16    18    1
     4    16     9    1
     5     9    10   am
     6    10    11    2
     7    10    12   am
     8    12     8    1
     9     8     7    1
    10     7     1    1
    11     1     2    1
    12     2     3    1
    13     3     4    1
    14     4     5    1
    15     5    19    1
    16    19    20    1
    17    20    21   am
    18    21    22    2
    19    21    24    1
    20    24    25   ar
    21    25    26   ar
    22    26    27    1
    23    26    28   ar
    24    28    29   ar
    25    29    30    1
    26    29    31   ar
    27     5     6    1
    28     6     1    1
    29    31    24   ar
    30     9    13    1
    31    12    14    1
    32    20    23    1
@<TRIPOS>MOLECULE
*****
 31 32 0 0 0
SMALL
GASTEIGER

@<TRIPOS>ATOM
      1 N         141.0988  138.3532  162.4932 N.3     1  UNL1       -0.2712
      2 C         140.2818  138.0905  161.2630 C.3     1  UNL1        0.0721
      3 C         138.8268  138.4541  161.2371 C.3     1  UNL1        0.0174
      4 C         138.1887  139.0805  162.4414 C.3     1  UNL1        0.0045
      5 C         139.0057  139.3432  163.6716 C.3     1  UNL1        0.0356
      6 C         140.4607  138.9796  163.6976 C.3     1  UNL1        0.0738
      7 C         142.5538  137.9896  162.5192 C.3     1  UNL1        0.0937
      8 C         143.5369  138.7710  161.6989 C.3     1  UNL1        0.1082
      9 N         144.8637  142.0890  163.4253 N.am    1  UNL1       -0.2921
     10 C         143.9453  141.1068  162.7605 C.2     1  UNL1        0.3007
     11 O         142.5170  141.4784  162.4926 O.2     1  UNL1       -0.2528
     12 N         144.4553  139.7531  162.3637 N.am    1  UNL1       -0.2875
     13 H         145.8012  141.8451  163.6012 H       1  UNL1        0.1508
     14 H         145.3927  139.5092  162.5395 H       1  UNL1        0.1510
     15 C         144.4918  143.9105  162.4038 C.3     1  UNL1        0.0197
     16 C         144.3538  143.4426  163.8222 C.3     1  UNL1        0.0583
     17 C         144.2158  142.9748  165.2406 C.3     1  UNL1        0.0197
     18 C         143.8439  144.7963  164.2191 C.3     1  UNL1        0.0197
     19 C         138.3676  139.9696  164.8761 C.3     1  UNL1        0.0910
     20 N         139.2200  140.6343  165.9161 N.am    1  UNL1       -0.3008
     21 C         139.2692  140.0826  167.3101 C.2     1  UNL1        0.2459
     22 O         138.4659  138.8662  167.6641 O.2     1  UNL1       -0.2701
     23 H         139.7471  141.4326  165.6837 H       1  UNL1        0.1497
     24 C         140.1215  140.7472  168.3501 C.ar    1  UNL1        0.0550
     25 C         141.2025  139.9709  169.0420 C.ar    1  UNL1        0.0160
     26 C         142.0549  140.6355  170.0820 C.ar    1  UNL1        0.0587
     27 CL        143.1358  139.8591  170.7740 Cl      1  UNL1       -0.0822
     28 C         141.8263  142.0766  170.4301 C.ar    1  UNL1        0.0228
     29 C         140.7454  142.8530  169.7382 C.ar    1  UNL1        0.0587
     30 CL        140.5168  144.2940  170.0862 Cl      1  UNL1       -0.0822
     31 C         139.8930  142.1882  168.6981 C.ar    1  UNL1        0.0160
@<TRIPOS>BOND
     1    15    16    1
     2    16    17    1
     3    16    18    1
     4    16     9    1
     5     9    10   am
     6    10    11    2
     7    10    12   am
     8    12     8    1
     9     8     7    1
    10     7     1    1
    11     1     2    1
    12     2     3    1
    13     3     4    1
    14     4     5    1
    15     5    19    1
    16    19    20    1
    17    20    21   am
    18    21    22    2
    19    21    24    1
    20    24    25   ar
    21    25    26   ar
    22    26    27    1
    23    26    28   ar
    24    28    29   ar
    25    29    30    1
    26    29    31   ar
    27     5     6    1
    28     6     1    1
    29    31    24   ar
    30     9    13    1
    31    12    14    1
    32    20    23    1
@<TRIPOS>MOLECULE
*****
 31 32 0 0 0
SMALL
GASTEIGER

@<TRIPOS>ATOM
      1 N         139.1628  143.1441  160.1986 N.3     1  UNL1       -0.2712
      2 C         139.8497  144.1291  159.2998 C.3     1  UNL1        0.0721
      3 C         140.4187  145.3945  159.8699 C.3     1  UNL1        0.0174
      4 C         140.3008  145.6749  161.3387 C.3     1  UNL1        0.0045
      5 C         139.6138  144.6899  162.2374 C.3     1  UNL1        0.0356
      6 C         139.0448  143.4244  161.6674 C.3     1  UNL1        0.0738
      7 C         138.5937  141.8787  159.6285 C.3     1  UNL1        0.0937
      8 C         139.1539  140.5506  160.0439 C.3     1  UNL1        0.1082
      9 N         139.7346  139.5807  163.8481 N.am    1  UNL1       -0.2921
     10 C         139.0772  139.7315  162.5083 C.2     1  UNL1        0.3007
     11 O         137.6859  139.2141  162.2931 O.2     1  UNL1       -0.2528
     12 N         139.8113  140.3998  161.3837 N.am    1  UNL1       -0.2875
     13 H         140.6478  139.9204  163.9893 H       1  UNL1        0.1508
     14 H         140.7245  140.7394  161.5249 H       1  UNL1        0.1510
     15 C         138.2321  140.1762  165.2220 C.3     1  UNL1        0.0197
     16 C         139.0007  138.9125  164.9727 C.3     1  UNL1        0.0583
     17 C         139.7693  137.6488  164.7234 C.3     1  UNL1        0.0197
     18 C         138.2667  138.2442  166.0973 C.3     1  UNL1        0.0197
     19 C         139.4959  144.9702  163.7063 C.3     1  UNL1        0.0910
     20 N         139.6318  143.8518  164.6966 N.am    1  UNL1       -0.3008
     21 C         140.9930  143.3570  165.0869 C.2     1  UNL1        0.2459
     22 O         142.2182  143.9805  164.4868 O.2     1  UNL1       -0.2701
     23 H         138.8277  143.4426  165.0904 H       1  UNL1        0.1497
     24 C         141.1290  142.2386  166.0772 C.ar    1  UNL1        0.0550
     25 C         140.3147  142.2491  167.3369 C.ar    1  UNL1        0.0160
     26 C         140.4507  141.1307  168.3271 C.ar    1  UNL1        0.0587
     27 CL        139.6364  141.1412  169.5868 Cl      1  UNL1       -0.0822
     28 C         141.4010  140.0018  168.0578 C.ar    1  UNL1        0.0228
     29 C         142.2153  139.9913  166.7981 C.ar    1  UNL1        0.0587
     30 CL        143.1655  138.8624  166.5286 Cl      1  UNL1       -0.0822
     31 C         142.0792  141.1097  165.8077 C.ar    1  UNL1        0.0160
@<TRIPOS>BOND
     1    15    16    1
     2    16    17    1
     3    16    18    1
     4    16     9    1
     5     9    10   am
     6    10    11    2
     7    10    12   am
     8    12     8    1
     9     8     7    1
    10     7     1    1
    11     1     2    1
    12     2     3    1
    13     3     4    1
    14     4     5    1
    15     5    19    1
    16    19    20    1
    17    20    21   am
    18    21    22    2
    19    21    24    1
    20    24    25   ar
    21    25    26   ar
    22    26    27    1
    23    26    28   ar
    24    28    29   ar
    25    29    30    1
    26    29    31   ar
    27     5     6    1
    28     6     1    1
    29    31    24   ar
    30     9    13    1
    31    12    14    1
    32    20    23    1
@<TRIPOS>MOLECULE
*****
 31 32 0 0 0
SMALL
GASTEIGER

@<TRIPOS>ATOM
      1 N         140.4560  139.0848  159.8663 N.3     1  UNL1       -0.2712
      2 C         141.8484  139.0084  159.3136 C.3     1  UNL1        0.0721
      3 C         142.9388  138.3609  160.1148 C.3     1  UNL1        0.0174
      4 C         142.6368  137.7898  161.4685 C.3     1  UNL1        0.0045
      5 C         141.2444  137.8662  162.0211 C.3     1  UNL1        0.0356
      6 C         140.1540  138.5137  161.2200 C.3     1  UNL1        0.0738
      7 C         139.3656  139.7323  159.0651 C.3     1  UNL1        0.0937
      8 C         139.3514  141.2211  158.8835 C.3     1  UNL1        0.1082
      9 N         137.8227  143.3657  161.8523 N.am    1  UNL1       -0.2921
     10 C         138.7746  142.5222  161.0572 C.2     1  UNL1        0.3007
     11 O         140.1015  142.1361  161.6404 O.2     1  UNL1       -0.2528
     12 N         138.3995  142.0647  159.6787 N.am    1  UNL1       -0.2875
     13 H         136.9518  143.6191  161.4695 H       1  UNL1        0.1508
     14 H         137.5286  142.3181  159.2959 H       1  UNL1        0.1510
     15 C         138.8393  145.0481  162.6496 C.3     1  UNL1        0.0197
     16 C         138.1977  143.8232  163.2307 C.3     1  UNL1        0.0583
     17 C         137.5560  142.5982  163.8118 C.3     1  UNL1        0.0197
     18 C         138.5726  144.2806  164.6093 C.3     1  UNL1        0.0197
     19 C         140.9424  137.2951  163.3749 C.3     1  UNL1        0.0910
     20 N         141.1984  138.1111  164.6072 N.am    1  UNL1       -0.3008
     21 C         140.0777  138.8767  165.2461 C.2     1  UNL1        0.2459
     22 O         138.7011  138.8263  164.6525 O.2     1  UNL1       -0.2701
     23 H         142.1019  138.1441  164.9968 H       1  UNL1        0.1497
     24 C         140.3337  139.6926  166.4784 C.ar    1  UNL1        0.0550
     25 C         141.5644  140.5452  166.5711 C.ar    1  UNL1        0.0160
     26 C         141.8204  141.3612  167.8034 C.ar    1  UNL1        0.0587
     27 CL        143.0510  142.2138  167.8962 Cl      1  UNL1       -0.0822
     28 C         140.8457  141.3245  168.9431 C.ar    1  UNL1        0.0228
     29 C         139.6151  140.4719  168.8504 C.ar    1  UNL1        0.0587
     30 CL        138.6405  140.4352  169.9900 Cl      1  UNL1       -0.0822
     31 C         139.3591  139.6559  167.6180 C.ar    1  UNL1        0.0160
@<TRIPOS>BOND
     1    15    16    1
     2    16    17    1
     3    16    18    1
     4    16     9    1
     5     9    10   am
     6    10    11    2
     7    10    12   am
     8    12     8    1
     9     8     7    1
    10     7     1    1
    11     1     2    1
    12     2     3    1
    13     3     4    1
    14     4     5    1
    15     5    19    1
    16    19    20    1
    17    20    21   am
    18    21    22    2
    19    21    24    1
    20    24    25   ar
    21    25    26   ar
    22    26    27    1
    23    26    28   ar
    24    28    29   ar
    25    29    30    1
    26    29    31   ar
    27     5     6    1
    28     6     1    1
    29    31    24   ar
    30     9    13    1
    31    12    14    1
    32    20    23    1
@<TRIPOS>MOLECULE
*****
 31 32 0 0 0
SMALL
GASTEIGER

@<TRIPOS>ATOM
      1 N         144.1036  141.0889  160.7275 N.3     1  UNL1       -0.2712
      2 C         143.7329  139.9360  159.8424 C.3     1  UNL1        0.0721
      3 C         143.6010  138.5584  160.4209 C.3     1  UNL1        0.0174
      4 C         143.8400  138.3336  161.8846 C.3     1  UNL1        0.0045
      5 C         144.2108  139.4864  162.7697 C.3     1  UNL1        0.0356
      6 C         144.3426  140.8641  162.1911 C.3     1  UNL1        0.0738
      7 C         144.2355  142.4665  160.1489 C.3     1  UNL1        0.0937
      8 C         143.0154  143.3158  159.9487 C.3     1  UNL1        0.1082
      9 N         140.9539  144.7175  163.0367 N.am    1  UNL1       -0.2921
     10 C         141.4214  143.8061  161.9409 C.2     1  UNL1        0.3007
     11 O         140.7623  142.4735  161.7416 O.2     1  UNL1       -0.2528
     12 N         142.5479  144.2273  161.0445 N.am    1  UNL1       -0.2875
     13 H         141.3865  145.5922  163.1675 H       1  UNL1        0.1508
     14 H         142.9805  145.1019  161.1753 H       1  UNL1        0.1510
     15 C         140.8139  143.6993  164.8923 C.3     1  UNL1        0.0197
     16 C         139.8274  144.2964  163.9331 C.3     1  UNL1        0.0583
     17 C         138.8409  144.8935  162.9739 C.3     1  UNL1        0.0197
     18 C         138.7008  143.8753  164.8295 C.3     1  UNL1        0.0197
     19 C         144.4498  139.2616  164.2334 C.3     1  UNL1        0.0910
     20 N         143.2871  139.1411  165.1733 N.am    1  UNL1       -0.3008
     21 C         142.8142  140.3411  165.9392 C.2     1  UNL1        0.2459
     22 O         143.5041  141.6616  165.7651 O.2     1  UNL1       -0.2701
     23 H         142.8343  138.2744  165.2876 H       1  UNL1        0.1497
     24 C         141.6515  140.2206  166.8791 C.ar    1  UNL1        0.0550
     25 C         141.7996  140.6368  168.3126 C.ar    1  UNL1        0.0160
     26 C         140.6369  140.5162  169.2525 C.ar    1  UNL1        0.0587
     27 CL        140.7850  140.9325  170.6860 Cl      1  UNL1       -0.0822
     28 C         139.3260  139.9795  168.7590 C.ar    1  UNL1        0.0228
     29 C         139.1779  139.5632  167.3256 C.ar    1  UNL1        0.0587
     30 CL        137.8671  139.0265  166.8320 Cl      1  UNL1       -0.0822
     31 C         140.3407  139.6838  166.3856 C.ar    1  UNL1        0.0160
@<TRIPOS>BOND
     1    15    16    1
     2    16    17    1
     3    16    18    1
     4    16     9    1
     5     9    10   am
     6    10    11    2
     7    10    12   am
     8    12     8    1
     9     8     7    1
    10     7     1    1
    11     1     2    1
    12     2     3    1
    13     3     4    1
    14     4     5    1
    15     5    19    1
    16    19    20    1
    17    20    21   am
    18    21    22    2
    19    21    24    1
    20    24    25   ar
    21    25    26   ar
    22    26    27    1
    23    26    28   ar
    24    28    29   ar
    25    29    30    1
    26    29    31   ar
    27     5     6    1
    28     6     1    1
    29    31    24   ar
    30     9    13    1
    31    12    14    1
    32    20    23    1
@<TRIPOS>MOLECULE
*****
 31 32 0 0 0
SMALL
GASTEIGER

@<TRIPOS>ATOM
      1 N         139.2204  143.5520  160.8076 N.3     1  UNL1       -0.2712
      2 C         138.8937  142.4562  159.8369 C.3     1  UNL1        0.0721
      3 C         138.1769  141.2257  160.3082 C.3     1  UNL1        0.0174
      4 C         137.7868  141.0912  161.7503 C.3     1  UNL1        0.0045
      5 C         138.1135  142.1870  162.7210 C.3     1  UNL1        0.0356
      6 C         138.8303  143.4174  162.2497 C.3     1  UNL1        0.0738
      7 C         139.9372  144.7825  160.3362 C.3     1  UNL1        0.0937
      8 C         141.3895  144.7098  159.9683 C.3     1  UNL1        0.1082
      9 N         143.9065  143.7413  162.8799 N.am    1  UNL1       -0.2921
     10 C         142.8562  143.6207  161.8157 C.2     1  UNL1        0.3007
     11 O         142.2223  142.2906  161.5349 O.2     1  UNL1       -0.2528
     12 N         142.4398  144.8304  161.0324 N.am    1  UNL1       -0.2875
     13 H         144.3225  144.6143  163.0642 H       1  UNL1        0.1508
     14 H         142.8559  145.7034  161.2168 H       1  UNL1        0.1510
     15 C         145.2537  142.1351  162.5558 C.3     1  UNL1        0.0197
     16 C         144.3229  142.5317  163.6631 C.3     1  UNL1        0.0583
     17 C         143.3920  142.9284  164.7704 C.3     1  UNL1        0.0197
     18 C         144.7392  141.3221  164.4465 C.3     1  UNL1        0.0197
     19 C         137.7233  142.0524  164.1632 C.3     1  UNL1        0.0910
     20 N         138.5716  141.2412  165.0971 N.am    1  UNL1       -0.3008
     21 C         139.6911  141.8943  165.8523 C.2     1  UNL1        0.2459
     22 O         139.9622  143.3587  165.6736 O.2     1  UNL1       -0.2701
     23 H         138.3937  140.2800  165.2144 H       1  UNL1        0.1497
     24 C         140.5394  141.0830  166.7862 C.ar    1  UNL1        0.0550
     25 C         141.6036  140.1788  166.2386 C.ar    1  UNL1        0.0160
     26 C         142.4518  139.3675  167.1725 C.ar    1  UNL1        0.0587
     27 CL        143.5160  138.4632  166.6250 Cl      1  UNL1       -0.0822
     28 C         142.2360  139.4604  168.6540 C.ar    1  UNL1        0.0228
     29 C         141.1718  140.3647  169.2016 C.ar    1  UNL1        0.0587
     30 CL        140.9558  140.4576  170.6830 Cl      1  UNL1       -0.0822
     31 C         140.3234  141.1760  168.2676 C.ar    1  UNL1        0.0160
@<TRIPOS>BOND
     1    15    16    1
     2    16    17    1
     3    16    18    1
     4    16     9    1
     5     9    10   am
     6    10    11    2
     7    10    12   am
     8    12     8    1
     9     8     7    1
    10     7     1    1
    11     1     2    1
    12     2     3    1
    13     3     4    1
    14     4     5    1
    15     5    19    1
    16    19    20    1
    17    20    21   am
    18    21    22    2
    19    21    24    1
    20    24    25   ar
    21    25    26   ar
    22    26    27    1
    23    26    28   ar
    24    28    29   ar
    25    29    30    1
    26    29    31   ar
    27     5     6    1
    28     6     1    1
    29    31    24   ar
    30     9    13    1
    31    12    14    1
    32    20    23    1
@<TRIPOS>MOLECULE
*****
 31 32 0 0 0
SMALL
GASTEIGER

@<TRIPOS>ATOM
      1 N         139.0336  143.3096  160.4555 N.3     1  UNL1       -0.2712
      2 C         139.8744  144.4050  159.8697 C.3     1  UNL1        0.0721
      3 C         140.3425  145.5362  160.7364 C.3     1  UNL1        0.0174
      4 C         139.9698  145.5720  162.1889 C.3     1  UNL1        0.0045
      5 C         139.1290  144.4767  162.7747 C.3     1  UNL1        0.0356
      6 C         138.6609  143.3455  161.9080 C.3     1  UNL1        0.0738
      7 C         138.5654  142.1784  159.5888 C.3     1  UNL1        0.0937
      8 C         139.4943  141.0451  159.2682 C.3     1  UNL1        0.1082
      9 N         139.6198  138.0756  161.8981 N.am    1  UNL1       -0.2921
     10 C         139.8310  139.4199  161.2671 C.2     1  UNL1        0.3007
     11 O         140.5902  140.4833  162.0038 O.2     1  UNL1       -0.2528
     12 N         139.2830  139.7008  159.8993 N.am    1  UNL1       -0.2875
     13 H         139.1215  137.3776  161.4146 H       1  UNL1        0.1508
     14 H         138.7847  139.0028  159.4157 H       1  UNL1        0.1510
     15 C         141.4958  137.4458  162.6622 C.3     1  UNL1        0.0197
     16 C         140.1677  137.7946  163.2659 C.3     1  UNL1        0.0583
     17 C         138.8397  138.1435  163.8696 C.3     1  UNL1        0.0197
     18 C         140.7157  137.5137  164.6337 C.3     1  UNL1        0.0197
     19 C         138.7563  144.5125  164.2273 C.3     1  UNL1        0.0910
     20 N         139.7152  143.9997  165.2604 N.am    1  UNL1       -0.3008
     21 C         139.6966  142.5506  165.6474 C.2     1  UNL1        0.2459
     22 O         138.7190  141.6142  165.0011 O.2     1  UNL1       -0.2701
     23 H         140.3568  144.6143  165.6846 H       1  UNL1        0.1497
     24 C         140.6554  142.0378  166.6806 C.ar    1  UNL1        0.0550
     25 C         141.3486  140.7237  166.4740 C.ar    1  UNL1        0.0160
     26 C         142.3075  140.2109  167.5072 C.ar    1  UNL1        0.0587
     27 CL        143.0006  138.8968  167.3006 Cl      1  UNL1       -0.0822
     28 C         142.5733  141.0123  168.7471 C.ar    1  UNL1        0.0228
     29 C         141.8802  142.3264  168.9537 C.ar    1  UNL1        0.0587
     30 CL        142.1459  143.1277  170.1935 Cl      1  UNL1       -0.0822
     31 C         140.9212  142.8391  167.9204 C.ar    1  UNL1        0.0160
@<TRIPOS>BOND
     1    15    16    1
     2    16    17    1
     3    16    18    1
     4    16     9    1
     5     9    10   am
     6    10    11    2
     7    10    12   am
     8    12     8    1
     9     8     7    1
    10     7     1    1
    11     1     2    1
    12     2     3    1
    13     3     4    1
    14     4     5    1
    15     5    19    1
    16    19    20    1
    17    20    21   am
    18    21    22    2
    19    21    24    1
    20    24    25   ar
    21    25    26   ar
    22    26    27    1
    23    26    28   ar
    24    28    29   ar
    25    29    30    1
    26    29    31   ar
    27     5     6    1
    28     6     1    1
    29    31    24   ar
    30     9    13    1
    31    12    14    1
    32    20    23    1
