@<TRIPOS>MOLECULE
*****
 41 46 0 0 0
SMALL
GASTEIGER

@<TRIPOS>ATOM
      1 C         141.0652  142.1707  159.6136 C.3     1  UNL1        0.0605
      2 C         139.8845  143.0798  159.4420 C.3     1  UNL1        0.0460
      3 C         139.9752  144.1584  160.4804 C.3     1  UNL1        0.1247
      4 O         139.3016  145.3869  161.0162 O.3     1  UNL1       -0.3557
      5 C         140.1220  145.9037  162.1607 C.3     1  UNL1        0.1426
      6 C         141.3026  144.9946  162.3323 C.3     1  UNL1        0.0431
      7 C         141.2120  143.9160  161.2939 C.3     1  UNL1        0.0977
      8 C         141.8856  142.6875  160.7582 C.3     1  UNL1        0.0271
      9 C         142.4487  143.6735  162.1073 C.2     1  UNL1        0.2299
     10 O         143.7493  144.2999  161.6997 O.2     1  UNL1       -0.2747
     11 N         142.3849  142.8045  163.3284 N.am    1  UNL1       -0.2383
     12 C         143.6216  142.5620  164.1418 C.3     1  UNL1        0.3077
     13 O         143.5578  141.6931  165.3628 O.3     1  UNL1       -0.4553
     14 C         142.2572  141.0668  165.7704 C.ar    1  UNL1        0.1383
     15 C         142.1934  140.1978  166.9915 C.ar    1  UNL1        0.0366
     16 C         140.8928  139.5714  167.3991 C.ar    1  UNL1        0.0069
     17 C         139.6561  139.8140  166.5856 C.ar    1  UNL1        0.0714
     18 C         139.7199  140.6829  165.3646 C.ar    1  UNL1        0.0042
     19 C         141.0205  141.3093  164.9570 C.ar    1  UNL1        0.0318
     20 C         141.0843  142.1781  163.7360 C.3     1  UNL1        0.1265
     21 C         138.3555  139.1876  166.9932 C.3     1  UNL1        0.4186
     22 F         137.0549  138.5612  167.4008 F       1  UNL1       -0.1659
     23 F         138.6157  139.5749  168.4188 F       1  UNL1       -0.1659
     24 F         138.0952  138.8003  165.5677 F       1  UNL1       -0.1659
     25 C         141.9847  138.5319  157.1310 C.3     1  UNL1        0.0251
     26 C         142.1899  139.9026  156.5574 C.3     1  UNL1        0.0217
     27 C         141.8834  141.1156  157.3849 C.3     1  UNL1        0.0724
     28 N         141.3717  140.9578  158.7861 N.3     1  UNL1       -0.2738
     29 C         141.1666  139.5870  159.3597 C.3     1  UNL1        0.0724
     30 C         141.4731  138.3741  158.5322 C.3     1  UNL1        0.0217
     31 C         142.9885  134.8213  156.1441 C.ar    1  UNL1        0.0530
     32 C         142.9043  134.8932  154.6482 C.ar    1  UNL1        0.0045
     33 C         142.5135  136.1780  153.9799 C.ar    1  UNL1       -0.0002
     34 C         142.2070  137.3908  154.8075 C.ar    1  UNL1       -0.0043
     35 C         142.2913  137.3190  156.3034 C.ar    1  UNL1       -0.0223
     36 C         142.6820  136.0342  156.9717 C.ar    1  UNL1        0.0002
     37 C         145.1719  132.0618  157.9795 C.3     1  UNL1        0.1109
     38 N         144.7811  133.3467  157.3112 N.am    1  UNL1       -0.2992
     39 C         143.3793  133.5365  156.8125 C.2     1  UNL1        0.2459
     40 O         142.3682  132.4416  156.9820 O.2     1  UNL1       -0.2701
     41 H         145.4448  134.0653  157.1999 H       1  UNL1        0.1498
@<TRIPOS>BOND
     1    37    38    1
     2    38    39   am
     3    39    40    2
     4    39    31    1
     5    31    32   ar
     6    32    33   ar
     7    33    34   ar
     8    34    35   ar
     9    35    25    1
    10    25    26    1
    11    26    27    1
    12    27    28    1
    13     1    28    1
    14     1     2    1
    15     3     2    1
    16     3     4    1
    17     4     5    1
    18     5     6    1
    19     6     7    1
    20     7     9    1
    21     9    10    2
    22     9    11   am
    23    11    12    1
    24    12    13    1
    25    13    14    1
    26    14    15   ar
    27    15    16   ar
    28    16    17   ar
    29    17    21    1
    30    21    22    1
    31    21    23    1
    32    21    24    1
    33    17    18   ar
    34    18    19   ar
    35    19    20    1
    36     7     8    1
    37    28    29    1
    38    29    30    1
    39    35    36   ar
    40    36    31   ar
    41    30    25    1
    42     8     1    1
    43     7     3    1
    44    20    11    1
    45    19    14   ar
    46    38    41    1
@<TRIPOS>MOLECULE
*****
 41 46 0 0 0
SMALL
GASTEIGER

@<TRIPOS>ATOM
      1 C         140.2619  141.4681  161.2892 C.3     1  UNL1        0.0605
      2 C         140.3774  142.9634  161.2638 C.3     1  UNL1        0.0460
      3 C         139.5896  143.5088  162.4179 C.3     1  UNL1        0.1247
      4 O         139.1741  144.7701  163.1154 O.3     1  UNL1       -0.3557
      5 C         138.3149  144.3913  164.2852 C.3     1  UNL1        0.1426
      6 C         138.1995  142.8960  164.3107 C.3     1  UNL1        0.0431
      7 C         138.9872  142.3506  163.1566 C.3     1  UNL1        0.0977
      8 C         139.4028  141.0893  162.4590 C.3     1  UNL1        0.0271
      9 C         138.3849  141.1923  163.8952 C.2     1  UNL1        0.2299
     10 O         137.3310  140.3505  163.2389 O.2     1  UNL1       -0.2747
     11 N         138.8364  140.8759  165.2903 N.am    1  UNL1       -0.2383
     12 C         138.2341  139.7176  166.0289 C.3     1  UNL1        0.3077
     13 O         138.6856  139.4012  167.4239 O.3     1  UNL1       -0.4553
     14 C         139.7395  140.2430  168.0802 C.ar    1  UNL1        0.1383
     15 C         140.1910  139.9265  169.4752 C.ar    1  UNL1        0.0366
     16 C         141.2449  140.7683  170.1315 C.ar    1  UNL1        0.0069
     17 C         141.8472  141.9266  169.3928 C.ar    1  UNL1        0.0714
     18 C         141.3957  142.2430  167.9978 C.ar    1  UNL1        0.0042
     19 C         140.3418  141.4012  167.3415 C.ar    1  UNL1        0.0318
     20 C         139.8903  141.7177  165.9466 C.3     1  UNL1        0.1265
     21 C         142.9011  142.7684  170.0491 C.3     1  UNL1        0.4186
     22 F         143.9549  143.6102  170.7054 F       1  UNL1       -0.1659
     23 F         143.9066  141.6760  169.8358 F       1  UNL1       -0.1659
     24 F         141.8956  143.8609  170.2624 F       1  UNL1       -0.1659
     25 C         142.1598  138.6185  158.3689 C.3     1  UNL1        0.0251
     26 C         141.3466  139.7750  157.8677 C.3     1  UNL1        0.0217
     27 C         140.7139  140.7248  158.8411 C.3     1  UNL1        0.0724
     28 N         140.8946  140.5182  160.3157 N.3     1  UNL1       -0.2738
     29 C         141.7078  139.3617  160.8170 C.3     1  UNL1        0.0724
     30 C         142.3404  138.4119  159.8436 C.3     1  UNL1        0.0217
     31 C         143.5036  135.2561  156.7447 C.ar    1  UNL1        0.0530
     32 C         144.0576  135.7691  155.4485 C.ar    1  UNL1        0.0045
     33 C         143.9790  137.2318  155.1259 C.ar    1  UNL1       -0.0002
     34 C         143.3464  138.1816  156.0993 C.ar    1  UNL1       -0.0043
     35 C         142.7924  137.6686  157.3955 C.ar    1  UNL1       -0.0223
     36 C         142.8710  136.2059  157.7181 C.ar    1  UNL1        0.0002
     37 C         144.9421  131.7436  157.9039 C.3     1  UNL1        0.1109
     38 N         144.8634  133.2064  157.5812 N.am    1  UNL1       -0.2992
     39 C         143.5822  133.7933  157.0673 C.2     1  UNL1        0.2459
     40 O         142.3796  132.9174  156.8761 O.2     1  UNL1       -0.2701
     41 H         145.6527  133.7813  157.7067 H       1  UNL1        0.1498
@<TRIPOS>BOND
     1    37    38    1
     2    38    39   am
     3    39    40    2
     4    39    31    1
     5    31    32   ar
     6    32    33   ar
     7    33    34   ar
     8    34    35   ar
     9    35    25    1
    10    25    26    1
    11    26    27    1
    12    27    28    1
    13     1    28    1
    14     1     2    1
    15     3     2    1
    16     3     4    1
    17     4     5    1
    18     5     6    1
    19     6     7    1
    20     7     9    1
    21     9    10    2
    22     9    11   am
    23    11    12    1
    24    12    13    1
    25    13    14    1
    26    14    15   ar
    27    15    16   ar
    28    16    17   ar
    29    17    21    1
    30    21    22    1
    31    21    23    1
    32    21    24    1
    33    17    18   ar
    34    18    19   ar
    35    19    20    1
    36     7     8    1
    37    28    29    1
    38    29    30    1
    39    35    36   ar
    40    36    31   ar
    41    30    25    1
    42     8     1    1
    43     7     3    1
    44    20    11    1
    45    19    14   ar
    46    38    41    1
@<TRIPOS>MOLECULE
*****
 41 46 0 0 0
SMALL
GASTEIGER

@<TRIPOS>ATOM
      1 C         140.5530  141.8693  160.2727 C.3     1  UNL1        0.0605
      2 C         139.1885  142.4885  160.3400 C.3     1  UNL1        0.0460
      3 C         139.2207  143.5693  161.3797 C.3     1  UNL1        0.1247
      4 O         138.3974  144.6200  162.0639 O.3     1  UNL1       -0.3557
      5 C         139.2730  145.3180  163.0619 C.3     1  UNL1        0.1426
      6 C         140.6375  144.6987  162.9946 C.3     1  UNL1        0.0431
      7 C         140.6053  143.6180  161.9549 C.3     1  UNL1        0.0977
      8 C         141.4286  142.5673  161.2707 C.3     1  UNL1        0.0271
      9 C         141.9897  143.6666  162.5301 C.2     1  UNL1        0.2299
     10 O         143.1228  144.2121  161.7125 O.2     1  UNL1       -0.2747
     11 N         142.2411  143.1697  163.9230 N.am    1  UNL1       -0.2383
     12 C         143.6256  143.2184  164.4982 C.3     1  UNL1        0.3077
     13 O         143.8769  142.7215  165.8910 O.3     1  UNL1       -0.4553
     14 C         142.7438  142.1760  166.7085 C.ar    1  UNL1        0.1383
     15 C         142.9952  141.6791  168.1014 C.ar    1  UNL1        0.0366
     16 C         141.8621  141.1335  168.9190 C.ar    1  UNL1        0.0069
     17 C         140.4775  141.0849  168.3437 C.ar    1  UNL1        0.0714
     18 C         140.2262  141.5818  166.9509 C.ar    1  UNL1        0.0042
     19 C         141.3593  142.1273  166.1334 C.ar    1  UNL1        0.0318
     20 C         141.1080  142.6242  164.7406 C.3     1  UNL1        0.1265
     21 C         139.3444  140.5394  169.1613 C.3     1  UNL1        0.4186
     22 F         138.2113  139.9939  169.9789 F       1  UNL1       -0.1659
     23 F         139.0756  139.5112  168.1028 F       1  UNL1       -0.1659
     24 F         139.6132  141.5676  170.2199 F       1  UNL1       -0.1659
     25 C         141.8008  138.5075  157.5539 C.3     1  UNL1        0.0251
     26 C         142.8298  139.4542  158.0970 C.3     1  UNL1        0.0217
     27 C         142.4139  140.5747  159.0033 C.3     1  UNL1        0.0724
     28 N         140.9690  140.7486  159.3664 N.3     1  UNL1       -0.2738
     29 C         139.9399  139.8020  158.8233 C.3     1  UNL1        0.0724
     30 C         140.3558  138.6815  157.9170 C.3     1  UNL1        0.0217
     31 C         143.0197  134.9379  156.3202 C.ar    1  UNL1        0.0530
     32 C         143.0486  135.1459  154.8350 C.ar    1  UNL1        0.0045
     33 C         142.6615  136.4744  154.2561 C.ar    1  UNL1       -0.0002
     34 C         142.2456  137.5949  155.1624 C.ar    1  UNL1       -0.0043
     35 C         142.2167  137.3869  156.6476 C.ar    1  UNL1       -0.0223
     36 C         142.6038  136.0584  157.2265 C.ar    1  UNL1        0.0002
     37 C         145.1702  132.0797  158.0397 C.3     1  UNL1        0.1109
     38 N         144.7831  133.4083  157.4608 N.am    1  UNL1       -0.2992
     39 C         143.4069  133.6093  156.8992 C.2     1  UNL1        0.2459
     40 O         142.4176  132.4819  156.9165 O.2     1  UNL1       -0.2701
     41 H         145.4324  134.1483  157.4494 H       1  UNL1        0.1498
@<TRIPOS>BOND
     1    37    38    1
     2    38    39   am
     3    39    40    2
     4    39    31    1
     5    31    32   ar
     6    32    33   ar
     7    33    34   ar
     8    34    35   ar
     9    35    25    1
    10    25    26    1
    11    26    27    1
    12    27    28    1
    13     1    28    1
    14     1     2    1
    15     3     2    1
    16     3     4    1
    17     4     5    1
    18     5     6    1
    19     6     7    1
    20     7     9    1
    21     9    10    2
    22     9    11   am
    23    11    12    1
    24    12    13    1
    25    13    14    1
    26    14    15   ar
    27    15    16   ar
    28    16    17   ar
    29    17    21    1
    30    21    22    1
    31    21    23    1
    32    21    24    1
    33    17    18   ar
    34    18    19   ar
    35    19    20    1
    36     7     8    1
    37    28    29    1
    38    29    30    1
    39    35    36   ar
    40    36    31   ar
    41    30    25    1
    42     8     1    1
    43     7     3    1
    44    20    11    1
    45    19    14   ar
    46    38    41    1
@<TRIPOS>MOLECULE
*****
 41 46 0 0 0
SMALL
GASTEIGER

@<TRIPOS>ATOM
      1 C         141.8235  141.1075  159.0268 C.3     1  UNL1        0.0605
      2 C         142.8038  142.2392  159.1168 C.3     1  UNL1        0.0460
      3 C         142.1301  143.3816  159.8176 C.3     1  UNL1        0.1247
      4 O         142.3195  144.7870  160.3064 O.3     1  UNL1       -0.3557
      5 C         141.0399  145.2298  160.9516 C.3     1  UNL1        0.1426
      6 C         140.0595  144.0981  160.8617 C.3     1  UNL1        0.0431
      7 C         140.7332  142.9558  160.1608 C.3     1  UNL1        0.0977
      8 C         140.5438  141.5504  159.6721 C.3     1  UNL1        0.0271
      9 C         139.3365  142.5301  160.5040 C.2     1  UNL1        0.2299
     10 O         138.2165  142.7842  159.5391 O.2     1  UNL1       -0.2747
     11 N         139.0597  141.8502  161.8122 N.am    1  UNL1       -0.2383
     12 C         137.6630  141.4244  162.1553 C.3     1  UNL1        0.3077
     13 O         137.3862  140.7446  163.4634 O.3     1  UNL1       -0.4553
     14 C         138.5062  140.4905  164.4284 C.ar    1  UNL1        0.1383
     15 C         138.2294  139.8106  165.7365 C.ar    1  UNL1        0.0366
     16 C         139.3494  139.5565  166.7014 C.ar    1  UNL1        0.0069
     17 C         140.7462  139.9823  166.3582 C.ar    1  UNL1        0.0714
     18 C         141.0229  140.6622  165.0501 C.ar    1  UNL1        0.0042
     19 C         139.9029  140.9163  164.0852 C.ar    1  UNL1        0.0318
     20 C         140.1797  141.5961  162.7771 C.3     1  UNL1        0.1265
     21 C         141.8661  139.7282  167.3231 C.3     1  UNL1        0.4186
     22 F         142.9861  139.4741  168.2881 F       1  UNL1       -0.1659
     23 F         142.8590  139.8670  166.2073 F       1  UNL1       -0.1659
     24 F         140.8733  139.5895  168.4390 F       1  UNL1       -0.1659
     25 C         142.5872  137.0892  157.1507 C.3     1  UNL1        0.0251
     26 C         142.1539  138.2448  156.2981 C.3     1  UNL1        0.0217
     27 C         141.8993  139.5843  156.9235 C.3     1  UNL1        0.0724
     28 N         142.0780  139.7681  158.4014 N.3     1  UNL1       -0.2738
     29 C         142.5113  138.6125  159.2539 C.3     1  UNL1        0.0724
     30 C         142.7659  137.2730  158.6286 C.3     1  UNL1        0.0217
     31 C         143.7327  133.3159  156.7042 C.ar    1  UNL1        0.0530
     32 C         143.3509  133.0710  155.2744 C.ar    1  UNL1        0.0045
     33 C         142.7145  134.1655  154.4701 C.ar    1  UNL1       -0.0002
     34 C         142.4599  135.5049  155.0955 C.ar    1  UNL1       -0.0043
     35 C         142.8418  135.7498  156.5253 C.ar    1  UNL1       -0.0223
     36 C         143.4782  134.6552  157.3296 C.ar    1  UNL1        0.0002
     37 C         144.3250  129.7959  158.4390 C.3     1  UNL1        0.1109
     38 N         143.6886  130.8905  157.6346 N.am    1  UNL1       -0.2992
     39 C         144.3691  132.2213  157.5085 C.2     1  UNL1        0.2459
     40 O         145.6860  132.4575  158.1867 O.2     1  UNL1       -0.2701
     41 H         142.8243  130.7355  157.1895 H       1  UNL1        0.1498
@<TRIPOS>BOND
     1    37    38    1
     2    38    39   am
     3    39    40    2
     4    39    31    1
     5    31    32   ar
     6    32    33   ar
     7    33    34   ar
     8    34    35   ar
     9    35    25    1
    10    25    26    1
    11    26    27    1
    12    27    28    1
    13     1    28    1
    14     1     2    1
    15     3     2    1
    16     3     4    1
    17     4     5    1
    18     5     6    1
    19     6     7    1
    20     7     9    1
    21     9    10    2
    22     9    11   am
    23    11    12    1
    24    12    13    1
    25    13    14    1
    26    14    15   ar
    27    15    16   ar
    28    16    17   ar
    29    17    21    1
    30    21    22    1
    31    21    23    1
    32    21    24    1
    33    17    18   ar
    34    18    19   ar
    35    19    20    1
    36     7     8    1
    37    28    29    1
    38    29    30    1
    39    35    36   ar
    40    36    31   ar
    41    30    25    1
    42     8     1    1
    43     7     3    1
    44    20    11    1
    45    19    14   ar
    46    38    41    1
@<TRIPOS>MOLECULE
*****
 41 46 0 0 0
SMALL
GASTEIGER

@<TRIPOS>ATOM
      1 C         142.4045  140.0448  160.2723 C.3     1  UNL1        0.0605
      2 C         143.8312  140.4644  160.0760 C.3     1  UNL1        0.0460
      3 C         144.1155  140.4658  158.6032 C.3     1  UNL1        0.1247
      4 O         145.1729  140.7260  157.5716 O.3     1  UNL1       -0.3557
      5 C         144.5755  140.4681  156.2201 C.3     1  UNL1        0.1426
      6 C         143.1488  140.0485  156.4164 C.3     1  UNL1        0.0431
      7 C         142.8645  140.0471  157.8892 C.3     1  UNL1        0.0977
      8 C         141.8071  139.7869  158.9207 C.3     1  UNL1        0.0271
      9 C         141.6135  139.6283  157.1752 C.2     1  UNL1        0.2299
     10 O         140.4983  140.6116  156.9769 O.2     1  UNL1       -0.2747
     11 N         141.4778  138.2262  156.6596 N.am    1  UNL1       -0.2383
     12 C         140.2268  137.8075  155.9457 C.3     1  UNL1        0.3077
     13 O         140.0911  136.4055  155.4301 O.3     1  UNL1       -0.4553
     14 C         141.2064  135.4222  155.6285 C.ar    1  UNL1        0.1383
     15 C         141.0706  134.0201  155.1129 C.ar    1  UNL1        0.0366
     16 C         142.1858  133.0368  155.3112 C.ar    1  UNL1        0.0069
     17 C         143.4368  133.4556  156.0252 C.ar    1  UNL1        0.0714
     18 C         143.5725  134.8576  156.5408 C.ar    1  UNL1        0.0042
     19 C         142.4573  135.8409  156.3424 C.ar    1  UNL1        0.0318
     20 C         142.5930  137.2429  156.8580 C.3     1  UNL1        0.1265
     21 C         144.5521  132.4723  156.2236 C.3     1  UNL1        0.4186
     22 F         145.6673  131.4890  156.4220 F       1  UNL1       -0.1659
     23 F         144.1916  131.8027  154.9307 F       1  UNL1       -0.1659
     24 F         144.9125  133.1419  157.5165 F       1  UNL1       -0.1659
     25 C         140.2883  139.6322  164.2221 C.3     1  UNL1        0.0251
     26 C         139.7709  138.9079  163.0148 C.3     1  UNL1        0.0217
     27 C         140.4763  139.0454  161.6982 C.3     1  UNL1        0.0724
     28 N         141.6991  139.9072  161.5889 N.3     1  UNL1       -0.2738
     29 C         142.2165  140.6316  162.7962 C.3     1  UNL1        0.0724
     30 C         141.5111  140.4940  164.1128 C.3     1  UNL1        0.0217
     31 C         139.3850  140.0946  168.0588 C.ar    1  UNL1        0.0530
     32 C         138.1720  139.2195  168.1719 C.ar    1  UNL1        0.0045
     33 C         137.6644  138.4820  166.9684 C.ar    1  UNL1       -0.0002
     34 C         138.3698  138.6196  165.6519 C.ar    1  UNL1       -0.0043
     35 C         139.5829  139.4947  165.5388 C.ar    1  UNL1       -0.0223
     36 C         140.0905  140.2322  166.7422 C.ar    1  UNL1        0.0002
     37 C         141.8577  141.9050  170.5805 C.3     1  UNL1        0.1109
     38 N         141.3501  141.1675  169.3769 N.am    1  UNL1       -0.2992
     39 C         139.8926  140.8321  169.2624 C.2     1  UNL1        0.2459
     40 O         138.9427  141.2341  170.3514 O.2     1  UNL1       -0.2701
     41 H         141.9736  140.9037  168.6621 H       1  UNL1        0.1498
@<TRIPOS>BOND
     1    37    38    1
     2    38    39   am
     3    39    40    2
     4    39    31    1
     5    31    32   ar
     6    32    33   ar
     7    33    34   ar
     8    34    35   ar
     9    35    25    1
    10    25    26    1
    11    26    27    1
    12    27    28    1
    13     1    28    1
    14     1     2    1
    15     3     2    1
    16     3     4    1
    17     4     5    1
    18     5     6    1
    19     6     7    1
    20     7     9    1
    21     9    10    2
    22     9    11   am
    23    11    12    1
    24    12    13    1
    25    13    14    1
    26    14    15   ar
    27    15    16   ar
    28    16    17   ar
    29    17    21    1
    30    21    22    1
    31    21    23    1
    32    21    24    1
    33    17    18   ar
    34    18    19   ar
    35    19    20    1
    36     7     8    1
    37    28    29    1
    38    29    30    1
    39    35    36   ar
    40    36    31   ar
    41    30    25    1
    42     8     1    1
    43     7     3    1
    44    20    11    1
    45    19    14   ar
    46    38    41    1
@<TRIPOS>MOLECULE
*****
 41 46 0 0 0
SMALL
GASTEIGER

@<TRIPOS>ATOM
      1 C         141.6617  143.8673  161.1208 C.3     1  UNL1        0.0605
      2 C         141.6802  145.0111  162.0911 C.3     1  UNL1        0.0460
      3 C         142.7350  144.7293  163.1197 C.3     1  UNL1        0.1247
      4 O         143.3984  145.2620  164.3550 O.3     1  UNL1       -0.3557
      5 C         144.4417  144.2733  164.7840 C.3     1  UNL1        0.1426
      6 C         144.4232  143.1296  163.8137 C.3     1  UNL1        0.0431
      7 C         143.3684  143.4113  162.7851 C.3     1  UNL1        0.0977
      8 C         142.7050  142.8786  161.5498 C.3     1  UNL1        0.0271
      9 C         144.0017  142.0934  162.4506 C.2     1  UNL1        0.2299
     10 O         145.2796  142.0530  161.6662 O.2     1  UNL1       -0.2747
     11 N         143.3571  140.8158  162.9004 N.am    1  UNL1       -0.2383
     12 C         143.9904  139.4979  162.5659 C.3     1  UNL1        0.3077
     13 O         143.3458  138.2204  163.0157 O.3     1  UNL1       -0.4553
     14 C         142.0679  138.2608  163.8001 C.ar    1  UNL1        0.1383
     15 C         141.4232  136.9832  164.2500 C.ar    1  UNL1        0.0366
     16 C         140.1453  137.0236  165.0344 C.ar    1  UNL1        0.0069
     17 C         139.5120  138.3416  165.3689 C.ar    1  UNL1        0.0714
     18 C         140.1566  139.6191  164.9191 C.ar    1  UNL1        0.0042
     19 C         141.4345  139.5787  164.1347 C.ar    1  UNL1        0.0318
     20 C         142.0792  140.8562  163.6848 C.3     1  UNL1        0.1265
     21 C         138.2341  138.3820  166.1533 C.3     1  UNL1        0.4186
     22 F         136.9562  138.4224  166.9377 F       1  UNL1       -0.1659
     23 F         138.0986  136.8951  166.0091 F       1  UNL1       -0.1659
     24 F         138.3696  139.8689  166.2975 F       1  UNL1       -0.1659
     25 C         138.9518  143.4713  157.5501 C.3     1  UNL1        0.0251
     26 C         139.9996  144.5443  157.5812 C.3     1  UNL1        0.0217
     27 C         140.9028  144.6763  158.7714 C.3     1  UNL1        0.0724
     28 N         140.7584  143.7353  159.9305 N.3     1  UNL1       -0.2738
     29 C         139.7106  142.6624  159.8995 C.3     1  UNL1        0.0724
     30 C         138.8074  142.5304  158.7093 C.3     1  UNL1        0.0217
     31 C         136.0295  142.2050  155.1823 C.ar    1  UNL1        0.0530
     32 C         136.2421  143.0755  153.9794 C.ar    1  UNL1        0.0045
     33 C         137.3578  144.0779  153.9666 C.ar    1  UNL1       -0.0002
     34 C         138.2611  144.2098  155.1569 C.ar    1  UNL1       -0.0043
     35 C         138.0485  143.3394  156.3598 C.ar    1  UNL1       -0.0223
     36 C         136.9327  142.3370  156.3726 C.ar    1  UNL1        0.0002
     37 C         133.6047  139.3079  156.3978 C.3     1  UNL1        0.1109
     38 N         134.7205  140.3104  156.3852 N.am    1  UNL1       -0.2992
     39 C         134.9137  141.2026  155.1950 C.2     1  UNL1        0.2459
     40 O         133.9911  141.0924  154.0174 O.2     1  UNL1       -0.2701
     41 H         135.3261  140.3827  157.1580 H       1  UNL1        0.1498
@<TRIPOS>BOND
     1    37    38    1
     2    38    39   am
     3    39    40    2
     4    39    31    1
     5    31    32   ar
     6    32    33   ar
     7    33    34   ar
     8    34    35   ar
     9    35    25    1
    10    25    26    1
    11    26    27    1
    12    27    28    1
    13     1    28    1
    14     1     2    1
    15     3     2    1
    16     3     4    1
    17     4     5    1
    18     5     6    1
    19     6     7    1
    20     7     9    1
    21     9    10    2
    22     9    11   am
    23    11    12    1
    24    12    13    1
    25    13    14    1
    26    14    15   ar
    27    15    16   ar
    28    16    17   ar
    29    17    21    1
    30    21    22    1
    31    21    23    1
    32    21    24    1
    33    17    18   ar
    34    18    19   ar
    35    19    20    1
    36     7     8    1
    37    28    29    1
    38    29    30    1
    39    35    36   ar
    40    36    31   ar
    41    30    25    1
    42     8     1    1
    43     7     3    1
    44    20    11    1
    45    19    14   ar
    46    38    41    1
@<TRIPOS>MOLECULE
*****
 41 46 0 0 0
SMALL
GASTEIGER

@<TRIPOS>ATOM
      1 C         140.7960  139.0263  157.2668 C.3     1  UNL1        0.0605
      2 C         141.3478  140.3490  156.8242 C.3     1  UNL1        0.0460
      3 C         140.5883  141.4295  157.5354 C.3     1  UNL1        0.1247
      4 O         140.4598  142.9147  157.7014 O.3     1  UNL1       -0.3557
      5 C         139.3592  143.1776  158.6860 C.3     1  UNL1        0.1426
      6 C         138.8074  141.8549  159.1286 C.3     1  UNL1        0.0431
      7 C         139.5670  140.7745  158.4175 C.3     1  UNL1        0.0977
      8 C         139.6954  139.2893  158.2514 C.3     1  UNL1        0.0271
      9 C         138.5457  140.1195  159.2995 C.2     1  UNL1        0.2299
     10 O         137.1211  140.0088  158.8433 O.2     1  UNL1       -0.2747
     11 N         138.9491  139.5752  160.6378 N.am    1  UNL1       -0.2383
     12 C         137.9279  138.9202  161.5199 C.3     1  UNL1        0.3077
     13 O         138.3313  138.3759  162.8581 O.3     1  UNL1       -0.4553
     14 C         139.7560  138.4866  163.3143 C.ar    1  UNL1        0.1383
     15 C         140.1594  137.9423  164.6527 C.ar    1  UNL1        0.0366
     16 C         141.5840  138.0530  165.1089 C.ar    1  UNL1        0.0069
     17 C         142.6053  138.7081  164.2268 C.ar    1  UNL1        0.0714
     18 C         142.2018  139.2523  162.8885 C.ar    1  UNL1        0.0042
     19 C         140.7772  139.1416  162.4323 C.ar    1  UNL1        0.0318
     20 C         140.3738  139.6859  161.0941 C.3     1  UNL1        0.1265
     21 C         144.0299  138.8188  164.6830 C.3     1  UNL1        0.4186
     22 F         145.4545  138.9295  165.1392 F       1  UNL1       -0.1659
     23 F         143.6138  138.4414  166.0738 F       1  UNL1       -0.1659
     24 F         144.4460  139.1962  163.2921 F       1  UNL1       -0.1659
     25 C         142.1963  134.9797  155.8833 C.3     1  UNL1        0.0251
     26 C         142.9735  135.7258  156.9270 C.3     1  UNL1        0.0217
     27 C         142.5067  137.0747  157.3882 C.3     1  UNL1        0.0724
     28 N         141.2628  137.6774  156.8056 N.3     1  UNL1       -0.2738
     29 C         140.4857  136.9312  155.7619 C.3     1  UNL1        0.0724
     30 C         140.9524  135.5824  155.3008 C.3     1  UNL1        0.0217
     31 C         143.7658  131.3350  155.9351 C.ar    1  UNL1        0.0530
     32 C         143.5967  130.9331  154.4999 C.ar    1  UNL1        0.0045
     33 C         142.9608  131.8800  153.5258 C.ar    1  UNL1       -0.0002
     34 C         142.4940  133.2289  153.9870 C.ar    1  UNL1       -0.0043
     35 C         142.6631  133.6308  155.4222 C.ar    1  UNL1       -0.0223
     36 C         143.2990  132.6838  156.3963 C.ar    1  UNL1        0.0002
     37 C         145.0625  127.9698  157.5918 C.3     1  UNL1        0.1109
     38 N         144.4265  128.9168  156.6177 N.am    1  UNL1       -0.2992
     39 C         144.4018  130.3880  156.9092 C.2     1  UNL1        0.2459
     40 O         145.0129  130.9122  158.1748 O.2     1  UNL1       -0.2701
     41 H         144.0254  128.5727  155.7870 H       1  UNL1        0.1498
@<TRIPOS>BOND
     1    37    38    1
     2    38    39   am
     3    39    40    2
     4    39    31    1
     5    31    32   ar
     6    32    33   ar
     7    33    34   ar
     8    34    35   ar
     9    35    25    1
    10    25    26    1
    11    26    27    1
    12    27    28    1
    13     1    28    1
    14     1     2    1
    15     3     2    1
    16     3     4    1
    17     4     5    1
    18     5     6    1
    19     6     7    1
    20     7     9    1
    21     9    10    2
    22     9    11   am
    23    11    12    1
    24    12    13    1
    25    13    14    1
    26    14    15   ar
    27    15    16   ar
    28    16    17   ar
    29    17    21    1
    30    21    22    1
    31    21    23    1
    32    21    24    1
    33    17    18   ar
    34    18    19   ar
    35    19    20    1
    36     7     8    1
    37    28    29    1
    38    29    30    1
    39    35    36   ar
    40    36    31   ar
    41    30    25    1
    42     8     1    1
    43     7     3    1
    44    20    11    1
    45    19    14   ar
    46    38    41    1
@<TRIPOS>MOLECULE
*****
 41 46 0 0 0
SMALL
GASTEIGER

@<TRIPOS>ATOM
      1 C         143.1683  141.2434  160.0825 C.3     1  UNL1        0.0605
      2 C         144.4042  142.0063  160.4571 C.3     1  UNL1        0.0460
      3 C         144.0043  143.1033  161.3987 C.3     1  UNL1        0.1247
      4 O         144.5209  144.2528  162.2122 O.3     1  UNL1       -0.3557
      5 C         143.3571  144.8783  162.9223 C.3     1  UNL1        0.1426
      6 C         142.1211  144.1153  162.5477 C.3     1  UNL1        0.0431
      7 C         142.5211  143.0184  161.6061 C.3     1  UNL1        0.0977
      8 C         142.0044  141.8689  160.7926 C.3     1  UNL1        0.0271
      9 C         141.0379  142.9334  161.8134 C.2     1  UNL1        0.2299
     10 O         140.1033  143.4988  160.7854 O.2     1  UNL1       -0.2747
     11 N         140.4893  142.2830  163.0489 N.am    1  UNL1       -0.2383
     12 C         139.0062  142.1981  163.2562 C.3     1  UNL1        0.3077
     13 O         138.4577  141.5477  164.4915 O.3     1  UNL1       -0.4553
     14 C         139.3923  140.9823  165.5195 C.ar    1  UNL1        0.1383
     15 C         138.8437  140.3319  166.7549 C.ar    1  UNL1        0.0366
     16 C         139.7784  139.7665  167.7830 C.ar    1  UNL1        0.0069
     17 C         141.2616  139.8515  167.5756 C.ar    1  UNL1        0.0714
     18 C         141.8101  140.5019  166.3402 C.ar    1  UNL1        0.0042
     19 C         140.8755  141.0673  165.3122 C.ar    1  UNL1        0.0318
     20 C         141.4240  141.7176  164.0769 C.3     1  UNL1        0.1265
     21 C         142.1962  139.2861  168.6036 C.3     1  UNL1        0.4186
     22 F         143.1308  138.7207  169.6316 F       1  UNL1       -0.1659
     23 F         141.2050  139.6087  169.6822 F       1  UNL1       -0.1659
     24 F         143.1875  138.9636  167.5250 F       1  UNL1       -0.1659
     25 C         142.9841  137.7002  157.3146 C.3     1  UNL1        0.0251
     26 C         143.3253  139.0572  156.7741 C.3     1  UNL1        0.0217
     27 C         143.3867  140.2382  157.6967 C.3     1  UNL1        0.0724
     28 N         143.1069  140.0623  159.1598 N.3     1  UNL1       -0.2738
     29 C         142.7657  138.7053  159.7003 C.3     1  UNL1        0.0724
     30 C         142.7043  137.5242  158.7776 C.3     1  UNL1        0.0217
     31 C         143.3509  133.9981  155.9325 C.ar    1  UNL1        0.0530
     32 C         142.7999  134.1571  154.5464 C.ar    1  UNL1        0.0045
     33 C         142.3102  135.4971  154.0831 C.ar    1  UNL1       -0.0002
     34 C         142.3716  136.6781  155.0058 C.ar    1  UNL1       -0.0043
     35 C         142.9227  136.5191  156.3918 C.ar    1  UNL1       -0.0223
     36 C         143.4123  135.1791  156.8552 C.ar    1  UNL1        0.0002
     37 C         143.4155  130.4092  157.6255 C.3     1  UNL1        0.1109
     38 N         142.9259  131.7493  157.1622 N.am    1  UNL1       -0.2992
     39 C         143.8406  132.6581  156.3958 C.2     1  UNL1        0.2459
     40 O         145.2449  132.2269  156.0926 O.2     1  UNL1       -0.2701
     41 H         142.0042  132.0323  157.3611 H       1  UNL1        0.1498
@<TRIPOS>BOND
     1    37    38    1
     2    38    39   am
     3    39    40    2
     4    39    31    1
     5    31    32   ar
     6    32    33   ar
     7    33    34   ar
     8    34    35   ar
     9    35    25    1
    10    25    26    1
    11    26    27    1
    12    27    28    1
    13     1    28    1
    14     1     2    1
    15     3     2    1
    16     3     4    1
    17     4     5    1
    18     5     6    1
    19     6     7    1
    20     7     9    1
    21     9    10    2
    22     9    11   am
    23    11    12    1
    24    12    13    1
    25    13    14    1
    26    14    15   ar
    27    15    16   ar
    28    16    17   ar
    29    17    21    1
    30    21    22    1
    31    21    23    1
    32    21    24    1
    33    17    18   ar
    34    18    19   ar
    35    19    20    1
    36     7     8    1
    37    28    29    1
    38    29    30    1
    39    35    36   ar
    40    36    31   ar
    41    30    25    1
    42     8     1    1
    43     7     3    1
    44    20    11    1
    45    19    14   ar
    46    38    41    1
@<TRIPOS>MOLECULE
*****
 41 46 0 0 0
SMALL
GASTEIGER

@<TRIPOS>ATOM
      1 C         141.8713  136.4518  156.6695 C.3     1  UNL1        0.0605
      2 C         140.5507  136.9426  156.1546 C.3     1  UNL1        0.0460
      3 C         140.4210  138.3920  156.5186 C.3     1  UNL1        0.1247
      4 O         139.5247  139.5911  156.4254 O.3     1  UNL1       -0.3557
      5 C         140.2112  140.7371  157.1077 C.3     1  UNL1        0.1426
      6 C         141.5317  140.2463  157.6226 C.3     1  UNL1        0.0431
      7 C         141.6615  138.7969  157.2585 C.3     1  UNL1        0.0977
      8 C         142.5578  137.5978  157.3517 C.3     1  UNL1        0.0271
      9 C         142.9018  139.2018  157.9984 C.2     1  UNL1        0.2299
     10 O         144.1124  139.6587  157.2395 O.2     1  UNL1       -0.2747
     11 N         142.9318  139.1498  159.4972 N.am    1  UNL1       -0.2383
     12 C         144.1722  139.5546  160.2371 C.3     1  UNL1        0.3077
     13 O         144.2021  139.5026  161.7359 O.3     1  UNL1       -0.4553
     14 C         142.9916  139.0457  162.4948 C.ar    1  UNL1        0.1383
     15 C         143.0215  138.9937  163.9936 C.ar    1  UNL1        0.0366
     16 C         141.8110  138.5368  164.7525 C.ar    1  UNL1        0.0069
     17 C         140.5706  138.1319  164.0126 C.ar    1  UNL1        0.0714
     18 C         140.5407  138.1839  162.5138 C.ar    1  UNL1        0.0042
     19 C         141.7512  138.6408  161.7549 C.ar    1  UNL1        0.0318
     20 C         141.7213  138.6929  160.2561 C.3     1  UNL1        0.1265
     21 C         139.3601  137.6750  164.7715 C.3     1  UNL1        0.4186
     22 F         138.1496  137.2180  165.5303 F       1  UNL1       -0.1659
     23 F         139.9003  138.3126  166.0171 F       1  UNL1       -0.1659
     24 F         138.8198  137.0373  163.5258 F       1  UNL1       -0.1659
     25 C         143.4897  132.2747  156.2425 C.3     1  UNL1        0.0251
     26 C         142.3910  132.7494  155.3383 C.3     1  UNL1        0.0217
     27 C         141.8516  134.1417  155.4806 C.3     1  UNL1        0.0724
     28 N         142.4108  135.0594  156.5271 N.3     1  UNL1       -0.2738
     29 C         143.5095  134.5847  157.4312 C.3     1  UNL1        0.0724
     30 C         144.0490  133.1923  157.2889 C.3     1  UNL1        0.0217
     31 C         144.8295  128.6582  157.1784 C.ar    1  UNL1        0.0530
     32 C         145.1081  128.0976  155.8153 C.ar    1  UNL1        0.0045
     33 C         144.8473  128.9293  154.5946 C.ar    1  UNL1       -0.0002
     34 C         144.3079  130.3216  154.7370 C.ar    1  UNL1       -0.0043
     35 C         144.0292  130.8823  156.1001 C.ar    1  UNL1       -0.0223
     36 C         144.2900  130.0505  157.3208 C.ar    1  UNL1        0.0002
     37 C         144.7109  127.3588  160.9265 C.3     1  UNL1        0.1109
     38 N         144.4500  128.1907  159.7057 N.am    1  UNL1       -0.2992
     39 C         145.0903  127.8264  158.3991 C.2     1  UNL1        0.2459
     40 O         145.9914  126.6303  158.3132 O.2     1  UNL1       -0.2701
     41 H         143.8586  128.9757  159.7622 H       1  UNL1        0.1498
@<TRIPOS>BOND
     1    37    38    1
     2    38    39   am
     3    39    40    2
     4    39    31    1
     5    31    32   ar
     6    32    33   ar
     7    33    34   ar
     8    34    35   ar
     9    35    25    1
    10    25    26    1
    11    26    27    1
    12    27    28    1
    13     1    28    1
    14     1     2    1
    15     3     2    1
    16     3     4    1
    17     4     5    1
    18     5     6    1
    19     6     7    1
    20     7     9    1
    21     9    10    2
    22     9    11   am
    23    11    12    1
    24    12    13    1
    25    13    14    1
    26    14    15   ar
    27    15    16   ar
    28    16    17   ar
    29    17    21    1
    30    21    22    1
    31    21    23    1
    32    21    24    1
    33    17    18   ar
    34    18    19   ar
    35    19    20    1
    36     7     8    1
    37    28    29    1
    38    29    30    1
    39    35    36   ar
    40    36    31   ar
    41    30    25    1
    42     8     1    1
    43     7     3    1
    44    20    11    1
    45    19    14   ar
    46    38    41    1
