@<TRIPOS>MOLECULE
*****
 27 30 0 0 0
SMALL
GASTEIGER

@<TRIPOS>ATOM
      1 C         141.5324  140.8909  167.3724 C.ar    1  UNL1        0.1347
      2 C         142.3559  139.8003  166.7541 C.ar    1  UNL1        0.0508
      3 C         142.6251  139.8086  165.2784 C.ar    1  UNL1        0.0872
      4 N         142.0707  140.9076  164.4212 N.ar    1  UNL1       -0.2293
      5 C         141.2471  141.9981  165.0395 C.ar    1  UNL1        0.1596
      6 N         140.9780  141.9898  166.5151 N.ar    1  UNL1       -0.2122
      7 C         140.6927  143.0972  164.1822 C.2     1  UNL1        0.0181
      8 C         139.6046  143.9841  164.7106 C.2     1  UNL1        0.0006
      9 C         139.0502  145.0831  163.8533 C.2     1  UNL1        0.0186
     10 C         139.5839  145.2951  162.4676 C.2     1  UNL1        0.0777
     11 N         139.2363  146.2890  161.3993 N.2     1  UNL1       -0.2442
     12 C         140.1096  146.0162  160.2107 C.2     1  UNL1        0.0985
     13 C         140.9969  144.8538  160.5443 C.2     1  UNL1        0.0182
     14 C         140.6720  144.4080  161.9392 C.2     1  UNL1        0.0015
     15 C         141.2264  143.3091  162.7965 C.3     1  UNL1        0.0573
     16 C         143.3572  142.3700  169.2384 C.3     1  UNL1        0.0241
     17 C         142.1757  141.6221  169.7810 C.3     1  UNL1        0.1038
     18 C         141.9065  141.6137  171.2567 C.3     1  UNL1        0.1618
     19 O         140.7249  140.8658  171.7993 O.3     1  UNL1       -0.3502
     20 C         139.8124  140.1263  170.8663 C.3     1  UNL1        0.1636
     21 C         140.0816  140.1346  169.3907 C.3     1  UNL1        0.1242
     22 N         141.2632  140.8825  168.8481 N.pl3   1  UNL1       -0.2897
     23 C         143.4486  138.7181  164.6601 C.3     1  UNL1        0.1963
     24 S         143.7105  138.7216  163.1831 S.O2    1  UNL1       -0.0025
     25 C         143.9723  138.7251  161.7062 C.3     1  UNL1        0.1765
     26 O         142.5091  137.8496  162.9681 O.2     1  UNL1       -0.1726
     27 O         144.9119  139.5936  163.3982 O.2     1  UNL1       -0.1726
@<TRIPOS>BOND
     1    17    16    1
     2    17    18    1
     3    18    19    1
     4    19    20    1
     5    20    21    1
     6    21    22    1
     7    22     1    1
     8     1     2   ar
     9     2     3   ar
    10     3    23    1
    11    23    24    1
    12    24    25    1
    13    24    26    2
    14    24    27    2
    15     3     4   ar
    16     4     5   ar
    17     5     7    1
    18     7     8    2
    19     8     9    1
    20     9    10    2
    21    10    11    1
    22    11    12    2
    23    12    13    1
    24    13    14    2
    25    14    15    1
    26     5     6   ar
    27    22    17    1
    28     6     1   ar
    29    15     7    1
    30    14    10    1
@<TRIPOS>MOLECULE
*****
 27 30 0 0 0
SMALL
GASTEIGER

@<TRIPOS>ATOM
      1 C         141.1605  141.9988  162.4683 C.ar    1  UNL1        0.1347
      2 C         142.0448  140.8732  162.0197 C.ar    1  UNL1        0.0508
      3 C         142.4817  139.8260  163.0008 C.ar    1  UNL1        0.0872
      4 N         142.0342  139.9044  164.4304 N.ar    1  UNL1       -0.2293
      5 C         141.1500  141.0299  164.8789 C.ar    1  UNL1        0.1596
      6 N         140.7132  142.0771  163.8978 N.ar    1  UNL1       -0.2122
      7 C         140.7026  141.1083  166.3085 C.2     1  UNL1        0.0181
      8 C         140.1020  139.9054  166.9735 C.2     1  UNL1        0.0006
      9 C         139.6546  139.9839  168.4031 C.2     1  UNL1        0.0186
     10 C         139.8078  141.2653  169.1676 C.2     1  UNL1        0.0777
     11 N         139.4606  141.6402  170.5779 N.2     1  UNL1       -0.2442
     12 C         139.8467  143.0749  170.7845 C.2     1  UNL1        0.0985
     13 C         140.4324  143.5866  169.5019 C.2     1  UNL1        0.0182
     14 C         140.4084  142.4682  168.5026 C.2     1  UNL1        0.0015
     15 C         140.8558  142.3897  167.0730 C.3     1  UNL1        0.0573
     16 C         141.8468  144.8800  162.9448 C.3     1  UNL1        0.0241
     17 C         141.0668  144.4866  161.7256 C.3     1  UNL1        0.1038
     18 C         140.6299  145.5339  160.7444 C.3     1  UNL1        0.1618
     19 O         139.8499  145.1405  159.5251 O.3     1  UNL1       -0.3502
     20 C         139.5068  143.6998  159.2868 C.3     1  UNL1        0.1636
     21 C         139.9437  142.6526  160.2679 C.3     1  UNL1        0.1242
     22 N         140.7236  143.0460  161.4871 N.pl3   1  UNL1       -0.2897
     23 C         143.3659  138.7005  162.5523 C.3     1  UNL1        0.1963
     24 S         143.1450  138.0608  161.2135 S.O2    1  UNL1       -0.0025
     25 C         142.9242  137.4212  159.8749 C.3     1  UNL1        0.1765
     26 O         141.8757  137.4416  161.7188 O.2     1  UNL1       -0.1726
     27 O         144.4144  138.6801  160.7082 O.2     1  UNL1       -0.1726
@<TRIPOS>BOND
     1    17    16    1
     2    17    18    1
     3    18    19    1
     4    19    20    1
     5    20    21    1
     6    21    22    1
     7    22     1    1
     8     1     2   ar
     9     2     3   ar
    10     3    23    1
    11    23    24    1
    12    24    25    1
    13    24    26    2
    14    24    27    2
    15     3     4   ar
    16     4     5   ar
    17     5     7    1
    18     7     8    2
    19     8     9    1
    20     9    10    2
    21    10    11    1
    22    11    12    2
    23    12    13    1
    24    13    14    2
    25    14    15    1
    26     5     6   ar
    27    22    17    1
    28     6     1   ar
    29    15     7    1
    30    14    10    1
@<TRIPOS>MOLECULE
*****
 27 30 0 0 0
SMALL
GASTEIGER

@<TRIPOS>ATOM
      1 C         141.8182  140.8876  162.5111 C.ar    1  UNL1        0.1347
      2 C         141.7617  142.2511  161.8885 C.ar    1  UNL1        0.0508
      3 C         141.3093  143.4283  162.7007 C.ar    1  UNL1        0.0872
      4 N         140.9134  143.2418  164.1355 N.ar    1  UNL1       -0.2293
      5 C         140.9699  141.8784  164.7580 C.ar    1  UNL1        0.1596
      6 N         141.4223  140.7012  163.9459 N.ar    1  UNL1       -0.2122
      7 C         140.5740  141.6919  166.1928 C.2     1  UNL1        0.0181
      8 C         140.0334  140.3718  166.6562 C.2     1  UNL1        0.0006
      9 C         139.6375  140.1854  168.0911 C.2     1  UNL1        0.0186
     10 C         139.7823  141.3192  169.0624 C.2     1  UNL1        0.0777
     11 N         139.4773  141.4315  170.5267 N.2     1  UNL1       -0.2442
     12 C         139.8295  142.8210  170.9683 C.2     1  UNL1        0.0985
     13 C         140.3521  143.5676  169.7769 C.2     1  UNL1        0.0182
     14 C         140.3229  142.6394  168.5989 C.2     1  UNL1        0.0015
     15 C         140.7188  142.8258  167.1641 C.3     1  UNL1        0.0573
     16 C         144.3619  139.4643  163.2207 C.3     1  UNL1        0.0241
     17 C         143.5425  138.9988  162.0538 C.3     1  UNL1        0.1038
     18 C         143.9949  137.8216  161.2416 C.3     1  UNL1        0.1618
     19 O         143.1755  137.3561  160.0746 O.3     1  UNL1       -0.3502
     20 C         141.9036  138.0677  159.7198 C.3     1  UNL1        0.1636
     21 C         141.4512  139.2449  160.5320 C.3     1  UNL1        0.1242
     22 N         142.2706  139.7104  161.6989 N.pl3   1  UNL1       -0.2897
     23 C         141.2527  144.7917  162.0781 C.3     1  UNL1        0.1963
     24 S         140.7312  144.9575  160.6815 S.O2    1  UNL1       -0.0025
     25 C         140.2097  145.1233  159.2849 C.3     1  UNL1        0.1765
     26 O         142.1376  145.0096  160.1626 O.2     1  UNL1       -0.1726
     27 O         139.3248  144.9054  161.2005 O.2     1  UNL1       -0.1726
@<TRIPOS>BOND
     1    17    16    1
     2    17    18    1
     3    18    19    1
     4    19    20    1
     5    20    21    1
     6    21    22    1
     7    22     1    1
     8     1     2   ar
     9     2     3   ar
    10     3    23    1
    11    23    24    1
    12    24    25    1
    13    24    26    2
    14    24    27    2
    15     3     4   ar
    16     4     5   ar
    17     5     7    1
    18     7     8    2
    19     8     9    1
    20     9    10    2
    21    10    11    1
    22    11    12    2
    23    12    13    1
    24    13    14    2
    25    14    15    1
    26     5     6   ar
    27    22    17    1
    28     6     1   ar
    29    15     7    1
    30    14    10    1
@<TRIPOS>MOLECULE
*****
 27 30 0 0 0
SMALL
GASTEIGER

@<TRIPOS>ATOM
      1 C         140.2872  141.4841  162.9704 C.ar    1  UNL1        0.1347
      2 C         140.4553  142.7799  162.2338 C.ar    1  UNL1        0.0508
      3 C         140.9604  143.9934  162.9564 C.ar    1  UNL1        0.0872
      4 N         141.2974  143.9111  164.4158 N.ar    1  UNL1       -0.2293
      5 C         141.1293  142.6154  165.1524 C.ar    1  UNL1        0.1596
      6 N         140.6242  141.4018  164.4298 N.ar    1  UNL1       -0.2122
      7 C         141.4663  142.5330  166.6118 C.2     1  UNL1        0.0181
      8 C         142.8964  142.4043  167.0452 C.2     1  UNL1        0.0006
      9 C         143.2334  142.3219  168.5046 C.2     1  UNL1        0.0186
     10 C         142.1401  142.3683  169.5305 C.2     1  UNL1        0.0777
     11 N         142.1667  142.3088  171.0291 N.2     1  UNL1       -0.2442
     12 C         140.7530  142.4007  171.5218 C.2     1  UNL1        0.0985
     13 C         139.8525  142.5170  170.3278 C.2     1  UNL1        0.0182
     14 C         140.7098  142.4970  169.0971 C.2     1  UNL1        0.0015
     15 C         140.3729  142.5794  167.6377 C.3     1  UNL1        0.0573
     16 C         137.3513  140.8681  162.9435 C.3     1  UNL1        0.0241
     17 C         138.3141  139.9626  162.2343 C.3     1  UNL1        0.1038
     18 C         137.8090  138.7491  161.5116 C.3     1  UNL1        0.1618
     19 O         138.7718  137.8436  160.8024 O.3     1  UNL1       -0.3502
     20 C         140.2398  138.1516  160.8158 C.3     1  UNL1        0.1636
     21 C         140.7449  139.3651  161.5385 C.3     1  UNL1        0.1242
     22 N         139.7821  140.2706  162.2477 N.pl3   1  UNL1       -0.2897
     23 C         141.1285  145.2892  162.2198 C.3     1  UNL1        0.1963
     24 S         140.7186  145.3924  160.7806 S.O2    1  UNL1       -0.0025
     25 C         140.3088  145.4956  159.3414 C.3     1  UNL1        0.1765
     26 O         139.3752  145.9108  161.2004 O.2     1  UNL1       -0.1726
     27 O         142.0622  144.8739  160.3608 O.2     1  UNL1       -0.1726
@<TRIPOS>BOND
     1    17    16    1
     2    17    18    1
     3    18    19    1
     4    19    20    1
     5    20    21    1
     6    21    22    1
     7    22     1    1
     8     1     2   ar
     9     2     3   ar
    10     3    23    1
    11    23    24    1
    12    24    25    1
    13    24    26    2
    14    24    27    2
    15     3     4   ar
    16     4     5   ar
    17     5     7    1
    18     7     8    2
    19     8     9    1
    20     9    10    2
    21    10    11    1
    22    11    12    2
    23    12    13    1
    24    13    14    2
    25    14    15    1
    26     5     6   ar
    27    22    17    1
    28     6     1   ar
    29    15     7    1
    30    14    10    1
@<TRIPOS>MOLECULE
*****
 27 30 0 0 0
SMALL
GASTEIGER

@<TRIPOS>ATOM
      1 C         140.7345  141.9970  167.0665 C.ar    1  UNL1        0.1347
      2 C         140.0293  143.2049  166.5247 C.ar    1  UNL1        0.0508
      3 C         140.0489  143.4870  165.0517 C.ar    1  UNL1        0.0872
      4 N         140.7738  142.5611  164.1203 N.ar    1  UNL1       -0.2293
      5 C         141.4790  141.3533  164.6621 C.ar    1  UNL1        0.1596
      6 N         141.4594  141.0711  166.1352 N.ar    1  UNL1       -0.2122
      7 C         142.2040  140.4274  163.7308 C.2     1  UNL1        0.0181
      8 C         143.6157  140.0176  164.0290 C.2     1  UNL1        0.0006
      9 C         144.3406  139.0917  163.0977 C.2     1  UNL1        0.0186
     10 C         143.6537  138.5757  161.8681 C.2     1  UNL1        0.0777
     11 N         144.1108  137.6573  160.7738 N.2     1  UNL1       -0.2442
     12 C         142.9816  137.4995  159.7992 C.2     1  UNL1        0.0985
     13 C         141.8265  138.3204  160.2912 C.2     1  UNL1        0.0182
     14 C         142.2419  138.9855  161.5699 C.2     1  UNL1        0.0015
     15 C         141.5171  139.9114  162.5012 C.3     1  UNL1        0.0573
     16 C         139.0207  139.7847  168.1474 C.3     1  UNL1        0.0241
     17 C         139.8579  140.6086  169.0800 C.3     1  UNL1        0.1038
     18 C         139.8383  140.3265  170.5532 C.3     1  UNL1        0.1618
     19 O         140.6756  141.1506  171.4858 O.3     1  UNL1       -0.3502
     20 C         141.5325  142.2567  170.9454 C.3     1  UNL1        0.1636
     21 C         141.5521  142.5388  169.4723 C.3     1  UNL1        0.1242
     22 N         140.7149  141.7148  168.5397 N.pl3   1  UNL1       -0.2897
     23 C         139.3437  144.6949  164.5099 C.3     1  UNL1        0.1963
     24 S         139.6145  145.1558  163.1083 S.O2    1  UNL1       -0.0025
     25 C         139.8852  145.6167  161.7069 C.3     1  UNL1        0.1765
     26 O         141.0000  145.5659  163.5109 O.2     1  UNL1       -0.1726
     27 O         138.2289  144.7457  162.7058 O.2     1  UNL1       -0.1726
@<TRIPOS>BOND
     1    17    16    1
     2    17    18    1
     3    18    19    1
     4    19    20    1
     5    20    21    1
     6    21    22    1
     7    22     1    1
     8     1     2   ar
     9     2     3   ar
    10     3    23    1
    11    23    24    1
    12    24    25    1
    13    24    26    2
    14    24    27    2
    15     3     4   ar
    16     4     5   ar
    17     5     7    1
    18     7     8    2
    19     8     9    1
    20     9    10    2
    21    10    11    1
    22    11    12    2
    23    12    13    1
    24    13    14    2
    25    14    15    1
    26     5     6   ar
    27    22    17    1
    28     6     1   ar
    29    15     7    1
    30    14    10    1
@<TRIPOS>MOLECULE
*****
 27 30 0 0 0
SMALL
GASTEIGER

@<TRIPOS>ATOM
      1 C         139.8910  142.1025  163.4944 C.ar    1  UNL1        0.1347
      2 C         139.4753  140.8260  162.8252 C.ar    1  UNL1        0.0508
      3 C         139.2490  139.5894  163.6434 C.ar    1  UNL1        0.0872
      4 N         139.4384  139.6293  165.1309 N.ar    1  UNL1       -0.2293
      5 C         139.8540  140.9057  165.8001 C.ar    1  UNL1        0.1596
      6 N         140.0803  142.1423  164.9818 N.ar    1  UNL1       -0.2122
      7 C         140.0434  140.9456  167.2876 C.2     1  UNL1        0.0181
      8 C         139.2092  140.0690  168.1737 C.2     1  UNL1        0.0006
      9 C         139.3986  140.1089  169.6612 C.2     1  UNL1        0.0186
     10 C         140.4224  141.0256  170.2625 C.2     1  UNL1        0.0777
     11 N         140.8307  141.2799  171.6832 N.2     1  UNL1       -0.2442
     12 C         141.9174  142.3139  171.6751 C.2     1  UNL1        0.0985
     13 C         142.1807  142.6985  170.2494 C.2     1  UNL1        0.0182
     14 C         141.2567  141.9023  169.3763 C.2     1  UNL1        0.0015
     15 C         141.0672  141.8623  167.8889 C.3     1  UNL1        0.0573
     16 C         137.8750  144.3236  163.5439 C.3     1  UNL1        0.0241
     17 C         139.1092  144.4496  162.7009 C.3     1  UNL1        0.1038
     18 C         139.3355  145.6863  161.8826 C.3     1  UNL1        0.1618
     19 O         140.5698  145.8123  161.0395 O.3     1  UNL1       -0.3502
     20 C         141.5778  144.7018  161.0148 C.3     1  UNL1        0.1636
     21 C         141.3515  143.4652  161.8331 C.3     1  UNL1        0.1242
     22 N         140.1173  143.3391  162.6760 N.pl3   1  UNL1       -0.2897
     23 C         138.8333  138.3130  162.9743 C.3     1  UNL1        0.1963
     24 S         139.0003  138.1542  161.4920 S.O2    1  UNL1       -0.0025
     25 C         139.1672  137.9955  160.0099 C.3     1  UNL1        0.1765
     26 O         137.6021  138.6548  161.2810 O.2     1  UNL1       -0.1726
     27 O         140.3985  137.6537  161.7031 O.2     1  UNL1       -0.1726
@<TRIPOS>BOND
     1    17    16    1
     2    17    18    1
     3    18    19    1
     4    19    20    1
     5    20    21    1
     6    21    22    1
     7    22     1    1
     8     1     2   ar
     9     2     3   ar
    10     3    23    1
    11    23    24    1
    12    24    25    1
    13    24    26    2
    14    24    27    2
    15     3     4   ar
    16     4     5   ar
    17     5     7    1
    18     7     8    2
    19     8     9    1
    20     9    10    2
    21    10    11    1
    22    11    12    2
    23    12    13    1
    24    13    14    2
    25    14    15    1
    26     5     6   ar
    27    22    17    1
    28     6     1   ar
    29    15     7    1
    30    14    10    1
@<TRIPOS>MOLECULE
*****
 27 30 0 0 0
SMALL
GASTEIGER

@<TRIPOS>ATOM
      1 C         140.7962  141.0733  163.3202 C.ar    1  UNL1        0.1347
      2 C         141.8187  141.7863  162.4859 C.ar    1  UNL1        0.0508
      3 C         142.8913  142.5999  163.1474 C.ar    1  UNL1        0.0872
      4 N         142.9412  142.7005  164.6433 N.ar    1  UNL1       -0.2293
      5 C         141.9187  141.9876  165.4775 C.ar    1  UNL1        0.1596
      6 N         140.8461  141.1739  164.8159 N.ar    1  UNL1       -0.2122
      7 C         141.9686  142.0882  166.9733 C.2     1  UNL1        0.0181
      8 C         143.2845  142.2730  167.6691 C.2     1  UNL1        0.0006
      9 C         143.3344  142.3736  169.1649 C.2     1  UNL1        0.0186
     10 C         142.0683  142.2894  169.9649 C.2     1  UNL1        0.0777
     11 N         141.8072  142.3555  171.4405 N.2     1  UNL1       -0.2442
     12 C         140.3298  142.2115  171.6566 C.2     1  UNL1        0.0985
     13 C         139.6779  142.0564  170.3146 C.2     1  UNL1        0.0182
     14 C         140.7524  142.1045  169.2690 C.2     1  UNL1        0.0015
     15 C         140.7025  142.0039  167.7732 C.3     1  UNL1        0.0573
     16 C         140.8687  138.0787  163.4845 C.3     1  UNL1        0.0241
     17 C         139.7599  138.7623  162.7409 C.3     1  UNL1        0.1038
     18 C         138.6873  137.9486  162.0793 C.3     1  UNL1        0.1618
     19 O         137.5785  138.6323  161.3356 O.3     1  UNL1       -0.3502
     20 C         137.5422  140.1296  161.2534 C.3     1  UNL1        0.1636
     21 C         138.6148  140.9432  161.9149 C.3     1  UNL1        0.1242
     22 N         139.7235  140.2596  162.6586 N.pl3   1  UNL1       -0.2897
     23 C         143.9138  143.3128  162.3132 C.3     1  UNL1        0.1963
     24 S         144.2060  142.8411  160.9196 S.O2    1  UNL1       -0.0025
     25 C         144.4982  142.3694  159.5260 C.3     1  UNL1        0.1765
     26 O         143.2071  143.8207  160.3786 O.2     1  UNL1       -0.1726
     27 O         145.2050  141.8615  161.4606 O.2     1  UNL1       -0.1726
@<TRIPOS>BOND
     1    17    16    1
     2    17    18    1
     3    18    19    1
     4    19    20    1
     5    20    21    1
     6    21    22    1
     7    22     1    1
     8     1     2   ar
     9     2     3   ar
    10     3    23    1
    11    23    24    1
    12    24    25    1
    13    24    26    2
    14    24    27    2
    15     3     4   ar
    16     4     5   ar
    17     5     7    1
    18     7     8    2
    19     8     9    1
    20     9    10    2
    21    10    11    1
    22    11    12    2
    23    12    13    1
    24    13    14    2
    25    14    15    1
    26     5     6   ar
    27    22    17    1
    28     6     1   ar
    29    15     7    1
    30    14    10    1
@<TRIPOS>MOLECULE
*****
 27 30 0 0 0
SMALL
GASTEIGER

@<TRIPOS>ATOM
      1 C         140.9499  140.4017  160.7046 C.ar    1  UNL1        0.1347
      2 C         141.2298  141.8512  160.4389 C.ar    1  UNL1        0.0508
      3 C         141.0416  142.8635  161.5297 C.ar    1  UNL1        0.0872
      4 N         140.5735  142.4263  162.8861 N.ar    1  UNL1       -0.2293
      5 C         140.2937  140.9768  163.1517 C.ar    1  UNL1        0.1596
      6 N         140.4819  139.9645  162.0610 N.ar    1  UNL1       -0.2122
      7 C         139.8256  140.5395  164.5081 C.2     1  UNL1        0.0181
      8 C         138.7908  139.4610  164.6327 C.2     1  UNL1        0.0006
      9 C         138.3227  139.0237  165.9892 C.2     1  UNL1        0.0186
     10 C         138.8896  139.6651  167.2209 C.2     1  UNL1        0.0777
     11 N         138.6241  139.4439  168.6805 N.2     1  UNL1       -0.2442
     12 C         139.4949  140.3858  169.4580 C.2     1  UNL1        0.0985
     13 C         140.2986  141.1891  168.4789 C.2     1  UNL1        0.0182
     14 C         139.9245  140.7437  167.0962 C.2     1  UNL1        0.0015
     15 C         140.3925  141.1809  165.7399 C.3     1  UNL1        0.0573
     16 C         143.6234  139.0983  160.3127 C.3     1  UNL1        0.0241
     17 C         142.4750  138.7377  159.4179 C.3     1  UNL1        0.1038
     18 C         142.6632  137.7253  158.3271 C.3     1  UNL1        0.1618
     19 O         141.5146  137.3647  157.4323 O.3     1  UNL1       -0.3502
     20 C         140.1778  138.0163  157.6282 C.3     1  UNL1        0.1636
     21 C         139.9897  139.0286  158.7190 C.3     1  UNL1        0.1242
     22 N         141.1382  139.3893  159.6138 N.pl3   1  UNL1       -0.2897
     23 C         141.3215  144.3130  161.2641 C.3     1  UNL1        0.1963
     24 S         140.8725  144.9401  159.9775 S.O2    1  UNL1       -0.0025
     25 C         140.4235  145.5672  158.6911 C.3     1  UNL1        0.1765
     26 O         139.4615  144.9719  160.4855 O.2     1  UNL1       -0.1726
     27 O         142.2835  144.9083  159.4695 O.2     1  UNL1       -0.1726
@<TRIPOS>BOND
     1    17    16    1
     2    17    18    1
     3    18    19    1
     4    19    20    1
     5    20    21    1
     6    21    22    1
     7    22     1    1
     8     1     2   ar
     9     2     3   ar
    10     3    23    1
    11    23    24    1
    12    24    25    1
    13    24    26    2
    14    24    27    2
    15     3     4   ar
    16     4     5   ar
    17     5     7    1
    18     7     8    2
    19     8     9    1
    20     9    10    2
    21    10    11    1
    22    11    12    2
    23    12    13    1
    24    13    14    2
    25    14    15    1
    26     5     6   ar
    27    22    17    1
    28     6     1   ar
    29    15     7    1
    30    14    10    1
@<TRIPOS>MOLECULE
*****
 27 30 0 0 0
SMALL
GASTEIGER

@<TRIPOS>ATOM
      1 C         141.7499  141.0927  163.0305 C.ar    1  UNL1        0.1347
      2 C         140.9379  142.1665  162.3688 C.ar    1  UNL1        0.0508
      3 C         140.3538  143.2781  163.1893 C.ar    1  UNL1        0.0872
      4 N         140.5817  143.3159  164.6714 N.ar    1  UNL1       -0.2293
      5 C         141.3937  142.2422  165.3330 C.ar    1  UNL1        0.1596
      6 N         141.9778  141.1306  164.5126 N.ar    1  UNL1       -0.2122
      7 C         141.6216  142.2800  166.8152 C.2     1  UNL1        0.0181
      8 C         143.0192  142.3180  167.3583 C.2     1  UNL1        0.0006
      9 C         143.2471  142.3558  168.8405 C.2     1  UNL1        0.0186
     10 C         142.0773  142.3556  169.7794 C.2     1  UNL1        0.0777
     11 N         141.9920  142.3879  171.2766 N.2     1  UNL1       -0.2442
     12 C         140.5416  142.3699  171.6587 C.2     1  UNL1        0.0985
     13 C         139.7305  142.3264  170.3976 C.2     1  UNL1        0.0182
     14 C         140.6796  142.3175  169.2361 C.2     1  UNL1        0.0015
     15 C         140.4518  142.2797  167.7540 C.3     1  UNL1        0.0573
     16 C         140.2640  138.5029  162.7391 C.3     1  UNL1        0.0241
     17 C         141.5910  138.6862  162.0643 C.3     1  UNL1        0.1038
     18 C         142.1751  137.5746  161.2438 C.3     1  UNL1        0.1618
     19 O         143.5022  137.7579  160.5690 O.3     1  UNL1       -0.3502
     20 C         144.2451  139.0528  160.7147 C.3     1  UNL1        0.1636
     21 C         143.6610  140.1644  161.5352 C.3     1  UNL1        0.1242
     22 N         142.3340  139.9811  162.2099 N.pl3   1  UNL1       -0.2897
     23 C         139.5419  144.3518  162.5277 C.3     1  UNL1        0.1963
     24 S         139.9740  144.9111  161.2046 S.O2    1  UNL1       -0.0025
     25 C         140.4061  145.4704  159.8816 C.3     1  UNL1        0.1765
     26 O         138.9762  144.0341  160.5080 O.2     1  UNL1       -0.1726
     27 O         140.9718  145.7882  161.9012 O.2     1  UNL1       -0.1726
@<TRIPOS>BOND
     1    17    16    1
     2    17    18    1
     3    18    19    1
     4    19    20    1
     5    20    21    1
     6    21    22    1
     7    22     1    1
     8     1     2   ar
     9     2     3   ar
    10     3    23    1
    11    23    24    1
    12    24    25    1
    13    24    26    2
    14    24    27    2
    15     3     4   ar
    16     4     5   ar
    17     5     7    1
    18     7     8    2
    19     8     9    1
    20     9    10    2
    21    10    11    1
    22    11    12    2
    23    12    13    1
    24    13    14    2
    25    14    15    1
    26     5     6   ar
    27    22    17    1
    28     6     1   ar
    29    15     7    1
    30    14    10    1
