@<TRIPOS>MOLECULE
*****
 25 28 0 0 0
SMALL
GASTEIGER

@<TRIPOS>ATOM
      1 C         141.5848  143.4682  163.0536 C.ar    1  UNL1        0.0884
      2 C         142.8197  143.9052  163.7843 C.ar    1  UNL1        0.0197
      3 C         143.2738  143.1580  165.0031 C.ar    1  UNL1        0.0030
      4 C         142.4931  141.9738  165.4911 C.ar    1  UNL1        0.0174
      5 C         142.9473  141.2266  166.7100 C.ar    1  UNL1       -0.0027
      6 C         142.1665  140.0425  167.1980 C.ar    1  UNL1       -0.0207
      7 C         140.9315  139.6056  166.4672 C.ar    1  UNL1       -0.0027
      8 C         140.4773  140.3528  165.2485 C.ar    1  UNL1        0.0188
      9 C         141.2581  141.5369  164.7604 C.ar    1  UNL1        0.0812
     10 N         140.8040  142.2841  163.5417 N.ar    1  UNL1       -0.2448
     11 C         141.4456  145.5603  158.2075 C.3     1  UNL1        0.0594
     12 C         141.0666  145.1770  159.6073 C.ar    1  UNL1        0.0883
     13 N         139.7966  145.5534  160.3113 N.ar    1  UNL1       -0.2470
     14 C         139.8362  144.9591  161.6880 C.ar    1  UNL1        0.0670
     15 C         138.7688  145.0862  162.7341 C.3     1  UNL1        0.0527
     16 C         141.1306  144.2154  161.8348 C.ar    1  UNL1        0.0617
     17 S         141.8910  144.3501  160.5489 S.2     1  UNL1       -0.0696
     18 C         142.6206  139.2953  168.4168 C.3     1  UNL1        0.0437
     19 C         142.3037  139.8263  169.7835 C.3     1  UNL1        0.0768
     20 N         141.6636  141.1744  169.9345 N.3     1  UNL1       -0.2737
     21 C         142.3848  142.4798  170.0954 C.3     1  UNL1        0.0721
     22 C         141.3569  143.5660  170.2115 C.3     1  UNL1        0.0187
     23 C         140.0004  142.9319  170.1224 C.3     1  UNL1        0.0174
     24 C         140.1900  141.4538  169.9512 C.3     1  UNL1        0.0576
     25 C         139.0977  140.4342  169.8198 C.3     1  UNL1        0.0173
@<TRIPOS>BOND
     1    11    12    1
     2    12    13   ar
     3    13    14   ar
     4    14    15    1
     5    14    16   ar
     6    16     1    1
     7     1     2   ar
     8     2     3   ar
     9     3     4   ar
    10     4     5   ar
    11     5     6   ar
    12     6    18    1
    13    18    19    1
    14    19    20    1
    15    20    21    1
    16    21    22    1
    17    22    23    1
    18    23    24    1
    19    24    25    1
    20     6     7   ar
    21     7     8   ar
    22     8     9   ar
    23     9    10   ar
    24    16    17   ar
    25    17    12   ar
    26    10     1   ar
    27     9     4   ar
    28    24    20    1
@<TRIPOS>MOLECULE
*****
 25 28 0 0 0
SMALL
GASTEIGER

@<TRIPOS>ATOM
      1 C         141.4339  138.3815  159.6365 C.ar    1  UNL1        0.0884
      2 C         139.9498  138.5388  159.4860 C.ar    1  UNL1        0.0197
      3 C         139.0549  138.3883  160.6803 C.ar    1  UNL1        0.0030
      4 C         139.6440  138.0804  162.0250 C.ar    1  UNL1        0.0174
      5 C         138.7489  137.9298  163.2193 C.ar    1  UNL1       -0.0027
      6 C         139.3380  137.6219  164.5639 C.ar    1  UNL1       -0.0207
      7 C         140.8222  137.4645  164.7143 C.ar    1  UNL1       -0.0027
      8 C         141.7171  137.6151  163.5201 C.ar    1  UNL1        0.0188
      9 C         141.1280  137.9230  162.1754 C.ar    1  UNL1        0.0812
     10 N         142.0230  138.0736  160.9812 N.ar    1  UNL1       -0.2448
     11 C         143.8039  137.5224  154.9968 C.3     1  UNL1        0.0594
     12 C         143.4184  138.1372  156.3096 C.ar    1  UNL1        0.0883
     13 N         143.9944  139.3904  156.8993 N.ar    1  UNL1       -0.2470
     14 C         143.3211  139.6344  158.2173 C.ar    1  UNL1        0.0670
     15 C         143.5923  140.7797  159.1472 C.3     1  UNL1        0.0527
     16 C         142.3290  138.5320  158.4422 C.ar    1  UNL1        0.0617
     17 S         142.3891  137.6067  157.2632 S.2     1  UNL1       -0.0696
     18 C         138.4430  137.4713  165.7582 C.3     1  UNL1        0.0437
     19 C         138.0117  138.6833  166.5298 C.3     1  UNL1        0.0768
     20 N         138.9497  139.8426  166.6912 N.3     1  UNL1       -0.2737
     21 C         139.9496  140.0206  167.7951 C.3     1  UNL1        0.0721
     22 C         140.6703  141.3155  167.5633 C.3     1  UNL1        0.0187
     23 C         140.1158  141.9378  166.3161 C.3     1  UNL1        0.0174
     24 C         139.0524  141.0275  165.7772 C.3     1  UNL1        0.0576
     25 C         138.2352  141.2610  164.5412 C.3     1  UNL1        0.0173
@<TRIPOS>BOND
     1    11    12    1
     2    12    13   ar
     3    13    14   ar
     4    14    15    1
     5    14    16   ar
     6    16     1    1
     7     1     2   ar
     8     2     3   ar
     9     3     4   ar
    10     4     5   ar
    11     5     6   ar
    12     6    18    1
    13    18    19    1
    14    19    20    1
    15    20    21    1
    16    21    22    1
    17    22    23    1
    18    23    24    1
    19    24    25    1
    20     6     7   ar
    21     7     8   ar
    22     8     9   ar
    23     9    10   ar
    24    16    17   ar
    25    17    12   ar
    26    10     1   ar
    27     9     4   ar
    28    24    20    1
@<TRIPOS>MOLECULE
*****
 25 28 0 0 0
SMALL
GASTEIGER

@<TRIPOS>ATOM
      1 C         141.6499  138.5113  159.3107 C.ar    1  UNL1        0.0884
      2 C         140.1609  138.5746  159.1412 C.ar    1  UNL1        0.0197
      3 C         139.2621  138.3767  160.3257 C.ar    1  UNL1        0.0030
      4 C         139.8524  138.1154  161.6796 C.ar    1  UNL1        0.0174
      5 C         138.9535  137.9174  162.8642 C.ar    1  UNL1       -0.0027
      6 C         139.5438  137.6561  164.2182 C.ar    1  UNL1       -0.0207
      7 C         141.0329  137.5927  164.3876 C.ar    1  UNL1       -0.0027
      8 C         141.9316  137.7907  163.2032 C.ar    1  UNL1        0.0188
      9 C         141.3414  138.0520  161.8492 C.ar    1  UNL1        0.0812
     10 N         142.2401  138.2499  160.6647 N.ar    1  UNL1       -0.2448
     11 C         144.7709  140.7636  155.6958 C.3     1  UNL1        0.0594
     12 C         143.9833  139.7445  156.4646 C.ar    1  UNL1        0.0883
     13 N         143.8804  138.2831  156.1423 N.ar    1  UNL1       -0.2470
     14 C         142.9938  137.6433  157.1692 C.ar    1  UNL1        0.0670
     15 C         142.6181  136.1923  157.2287 C.3     1  UNL1        0.0527
     16 C         142.5487  138.7092  158.1262 C.ar    1  UNL1        0.0617
     17 S         143.1603  140.0078  157.6907 S.2     1  UNL1       -0.0696
     18 C         138.6450  137.4581  165.4026 C.3     1  UNL1        0.0437
     19 C         138.1681  138.6434  166.1886 C.3     1  UNL1        0.0768
     20 N         138.7102  140.0095  165.8889 N.3     1  UNL1       -0.2737
     21 C         138.1738  140.9659  164.8655 C.3     1  UNL1        0.0721
     22 C         139.0160  142.2066  164.9041 C.3     1  UNL1        0.0187
     23 C         140.0730  142.0168  165.9514 C.3     1  UNL1        0.0174
     24 C         139.8840  140.6589  166.5600 C.3     1  UNL1        0.0576
     25 C         140.7217  140.0564  167.6487 C.3     1  UNL1        0.0173
@<TRIPOS>BOND
     1    11    12    1
     2    12    13   ar
     3    13    14   ar
     4    14    15    1
     5    14    16   ar
     6    16     1    1
     7     1     2   ar
     8     2     3   ar
     9     3     4   ar
    10     4     5   ar
    11     5     6   ar
    12     6    18    1
    13    18    19    1
    14    19    20    1
    15    20    21    1
    16    21    22    1
    17    22    23    1
    18    23    24    1
    19    24    25    1
    20     6     7   ar
    21     7     8   ar
    22     8     9   ar
    23     9    10   ar
    24    16    17   ar
    25    17    12   ar
    26    10     1   ar
    27     9     4   ar
    28    24    20    1
@<TRIPOS>MOLECULE
*****
 25 28 0 0 0
SMALL
GASTEIGER

@<TRIPOS>ATOM
      1 C         142.0444  142.0885  167.0949 C.ar    1  UNL1        0.0884
      2 C         143.2390  142.3827  166.2368 C.ar    1  UNL1        0.0197
      3 C         143.0856  143.2137  164.9975 C.ar    1  UNL1        0.0030
      4 C         141.7378  143.7505  164.6163 C.ar    1  UNL1        0.0174
      5 C         141.5846  144.5815  163.3769 C.ar    1  UNL1       -0.0027
      6 C         140.2367  145.1182  162.9958 C.ar    1  UNL1       -0.0207
      7 C         139.0422  144.8240  163.8540 C.ar    1  UNL1       -0.0027
      8 C         139.1955  143.9930  165.0933 C.ar    1  UNL1        0.0188
      9 C         140.5433  143.4562  165.4745 C.ar    1  UNL1        0.0812
     10 N         140.6966  142.6252  166.7138 N.ar    1  UNL1       -0.2448
     11 C         142.8994  138.0011  170.3266 C.3     1  UNL1        0.0594
     12 C         142.5907  139.3787  169.8197 C.ar    1  UNL1        0.0883
     13 N         142.2763  140.5787  170.6632 N.ar    1  UNL1       -0.2470
     14 C         142.0335  141.7398  169.7451 C.ar    1  UNL1        0.0670
     15 C         141.6872  143.1377  170.1643 C.3     1  UNL1        0.0527
     16 C         142.1977  141.2574  168.3343 C.ar    1  UNL1        0.0617
     17 S         142.5421  139.7983  168.3804 S.2     1  UNL1       -0.0696
     18 C         140.0834  145.9492  161.7565 C.3     1  UNL1        0.0437
     19 C         140.1394  145.2991  160.4058 C.3     1  UNL1        0.0768
     20 N         140.6341  143.8894  160.2720 N.3     1  UNL1       -0.2737
     21 C         142.0226  143.4753  159.8837 C.3     1  UNL1        0.0721
     22 C         142.0738  141.9762  159.8746 C.3     1  UNL1        0.0187
     23 C         140.7169  141.4638  160.2573 C.3     1  UNL1        0.0174
     24 C         139.8272  142.6462  160.5029 C.3     1  UNL1        0.0576
     25 C         138.3839  142.5945  160.9082 C.3     1  UNL1        0.0173
@<TRIPOS>BOND
     1    11    12    1
     2    12    13   ar
     3    13    14   ar
     4    14    15    1
     5    14    16   ar
     6    16     1    1
     7     1     2   ar
     8     2     3   ar
     9     3     4   ar
    10     4     5   ar
    11     5     6   ar
    12     6    18    1
    13    18    19    1
    14    19    20    1
    15    20    21    1
    16    21    22    1
    17    22    23    1
    18    23    24    1
    19    24    25    1
    20     6     7   ar
    21     7     8   ar
    22     8     9   ar
    23     9    10   ar
    24    16    17   ar
    25    17    12   ar
    26    10     1   ar
    27     9     4   ar
    28    24    20    1
@<TRIPOS>MOLECULE
*****
 25 28 0 0 0
SMALL
GASTEIGER

@<TRIPOS>ATOM
      1 C         142.3518  138.2134  159.8653 C.ar    1  UNL1        0.0884
      2 C         143.5835  139.0141  160.1683 C.ar    1  UNL1        0.0197
      3 C         143.9888  139.2567  161.5919 C.ar    1  UNL1        0.0030
      4 C         143.1625  138.6988  162.7126 C.ar    1  UNL1        0.0174
      5 C         143.5679  138.9415  164.1363 C.ar    1  UNL1       -0.0027
      6 C         142.7415  138.3835  165.2569 C.ar    1  UNL1       -0.0207
      7 C         141.5098  137.5828  164.9539 C.ar    1  UNL1       -0.0027
      8 C         141.1045  137.3401  163.5302 C.ar    1  UNL1        0.0188
      9 C         141.9308  137.8981  162.4096 C.ar    1  UNL1        0.0812
     10 N         141.5255  137.6554  160.9860 N.ar    1  UNL1       -0.2448
     11 C         142.3733  136.5649  154.8490 C.3     1  UNL1        0.0594
     12 C         141.9563  137.2129  156.1359 C.ar    1  UNL1        0.0883
     13 N         140.6887  137.9815  156.3659 N.ar    1  UNL1       -0.2470
     14 C         140.6827  138.4498  157.7909 C.ar    1  UNL1        0.0670
     15 C         139.6025  139.2556  158.4494 C.3     1  UNL1        0.0527
     16 C         141.9464  137.9707  158.4416 C.ar    1  UNL1        0.0617
     17 S         142.7335  137.2063  157.4189 S.2     1  UNL1       -0.0696
     18 C         143.1469  138.6262  166.6805 C.3     1  UNL1        0.0437
     19 C         142.7884  139.9185  167.3526 C.3     1  UNL1        0.0768
     20 N         141.6311  139.9725  168.3053 N.3     1  UNL1       -0.2737
     21 C         141.7042  139.7905  169.7925 C.3     1  UNL1        0.0721
     22 C         140.3158  139.9236  170.3445 C.3     1  UNL1        0.0187
     23 C         139.3847  140.1879  169.1985 C.3     1  UNL1        0.0174
     24 C         140.1976  140.2181  167.9383 C.3     1  UNL1        0.0576
     25 C         139.6697  140.4528  166.5540 C.3     1  UNL1        0.0173
@<TRIPOS>BOND
     1    11    12    1
     2    12    13   ar
     3    13    14   ar
     4    14    15    1
     5    14    16   ar
     6    16     1    1
     7     1     2   ar
     8     2     3   ar
     9     3     4   ar
    10     4     5   ar
    11     5     6   ar
    12     6    18    1
    13    18    19    1
    14    19    20    1
    15    20    21    1
    16    21    22    1
    17    22    23    1
    18    23    24    1
    19    24    25    1
    20     6     7   ar
    21     7     8   ar
    22     8     9   ar
    23     9    10   ar
    24    16    17   ar
    25    17    12   ar
    26    10     1   ar
    27     9     4   ar
    28    24    20    1
@<TRIPOS>MOLECULE
*****
 25 28 0 0 0
SMALL
GASTEIGER

@<TRIPOS>ATOM
      1 C         139.4219  141.1083  162.8413 C.ar    1  UNL1        0.0884
      2 C         138.3926  140.8512  163.9016 C.ar    1  UNL1        0.0197
      3 C         138.8210  140.4354  165.2776 C.ar    1  UNL1        0.0030
      4 C         140.2788  140.2767  165.5933 C.ar    1  UNL1        0.0174
      5 C         140.7073  139.8609  166.9695 C.ar    1  UNL1       -0.0027
      6 C         142.1650  139.7023  167.2852 C.ar    1  UNL1       -0.0207
      7 C         143.1944  139.9594  166.2248 C.ar    1  UNL1       -0.0027
      8 C         142.7660  140.3752  164.8487 C.ar    1  UNL1        0.0188
      9 C         141.3082  140.5338  164.5330 C.ar    1  UNL1        0.0812
     10 N         140.8797  140.9496  163.1570 N.ar    1  UNL1       -0.2448
     11 C         137.7378  140.9370  157.8397 C.3     1  UNL1        0.0594
     12 C         138.2194  141.4454  159.1662 C.ar    1  UNL1        0.0883
     13 N         138.4492  142.8826  159.5290 N.ar    1  UNL1       -0.2470
     14 C         138.9276  142.9313  160.9498 C.ar    1  UNL1        0.0670
     15 C         139.2785  144.1697  161.7200 C.3     1  UNL1        0.0527
     16 C         138.9935  141.5241  161.4651 C.ar    1  UNL1        0.0617
     17 S         138.5558  140.6058  160.3628 S.2     1  UNL1       -0.0696
     18 C         142.5935  139.2865  168.6612 C.3     1  UNL1        0.0437
     19 C         142.7973  140.3212  169.7280 C.3     1  UNL1        0.0768
     20 N         141.7939  141.4216  169.9070 N.3     1  UNL1       -0.2737
     21 C         142.0340  142.8821  169.6629 C.3     1  UNL1        0.0721
     22 C         140.7627  143.6179  169.9665 C.3     1  UNL1        0.0187
     23 C         139.7368  142.6122  170.3983 C.3     1  UNL1        0.0174
     24 C         140.3742  141.2549  170.3615 C.3     1  UNL1        0.0576
     25 C         139.7086  139.9585  170.7168 C.3     1  UNL1        0.0173
@<TRIPOS>BOND
     1    11    12    1
     2    12    13   ar
     3    13    14   ar
     4    14    15    1
     5    14    16   ar
     6    16     1    1
     7     1     2   ar
     8     2     3   ar
     9     3     4   ar
    10     4     5   ar
    11     5     6   ar
    12     6    18    1
    13    18    19    1
    14    19    20    1
    15    20    21    1
    16    21    22    1
    17    22    23    1
    18    23    24    1
    19    24    25    1
    20     6     7   ar
    21     7     8   ar
    22     8     9   ar
    23     9    10   ar
    24    16    17   ar
    25    17    12   ar
    26    10     1   ar
    27     9     4   ar
    28    24    20    1
@<TRIPOS>MOLECULE
*****
 25 28 0 0 0
SMALL
GASTEIGER

@<TRIPOS>ATOM
      1 C         142.4558  138.5494  159.4455 C.ar    1  UNL1        0.0884
      2 C         143.4141  138.3236  160.5771 C.ar    1  UNL1        0.0197
      3 C         142.8939  138.0624  161.9596 C.ar    1  UNL1        0.0030
      4 C         141.4155  138.0271  162.2104 C.ar    1  UNL1        0.0174
      5 C         140.8954  137.7659  163.5929 C.ar    1  UNL1       -0.0027
      6 C         139.4169  137.7306  163.8438 C.ar    1  UNL1       -0.0207
      7 C         138.4586  137.9564  162.7121 C.ar    1  UNL1       -0.0027
      8 C         138.9787  138.2176  161.3296 C.ar    1  UNL1        0.0188
      9 C         140.4572  138.2529  161.0788 C.ar    1  UNL1        0.0812
     10 N         140.9773  138.5140  159.6963 N.ar    1  UNL1       -0.2448
     11 C         144.5343  140.9644  155.2350 C.3     1  UNL1        0.0594
     12 C         143.9313  139.9206  156.1276 C.ar    1  UNL1        0.0883
     13 N         143.6213  138.5041  155.7434 N.ar    1  UNL1       -0.2470
     14 C         143.0308  137.8181  156.9395 C.ar    1  UNL1        0.0670
     15 C         142.5752  136.3903  157.0014 C.3     1  UNL1        0.0527
     16 C         142.9759  138.8105  158.0630 C.ar    1  UNL1        0.0617
     17 S         143.5325  140.1099  157.5612 S.2     1  UNL1       -0.0696
     18 C         138.8967  137.4694  165.2262 C.3     1  UNL1        0.0437
     19 C         138.2765  138.5830  166.0170 C.3     1  UNL1        0.0768
     20 N         139.0406  139.8523  166.2516 N.3     1  UNL1       -0.2737
     21 C         140.0217  140.0989  167.3592 C.3     1  UNL1        0.0721
     22 C         140.5453  141.4968  167.2119 C.3     1  UNL1        0.0187
     23 C         139.8878  142.1142  166.0133 C.3     1  UNL1        0.0174
     24 C         138.9579  141.0978  165.4198 C.3     1  UNL1        0.0576
     25 C         138.0965  141.2927  164.2074 C.3     1  UNL1        0.0173
@<TRIPOS>BOND
     1    11    12    1
     2    12    13   ar
     3    13    14   ar
     4    14    15    1
     5    14    16   ar
     6    16     1    1
     7     1     2   ar
     8     2     3   ar
     9     3     4   ar
    10     4     5   ar
    11     5     6   ar
    12     6    18    1
    13    18    19    1
    14    19    20    1
    15    20    21    1
    16    21    22    1
    17    22    23    1
    18    23    24    1
    19    24    25    1
    20     6     7   ar
    21     7     8   ar
    22     8     9   ar
    23     9    10   ar
    24    16    17   ar
    25    17    12   ar
    26    10     1   ar
    27     9     4   ar
    28    24    20    1
@<TRIPOS>MOLECULE
*****
 25 28 0 0 0
SMALL
GASTEIGER

@<TRIPOS>ATOM
      1 C         140.3032  144.0645  160.0798 C.ar    1  UNL1        0.0884
      2 C         141.6221  143.4523  160.4479 C.ar    1  UNL1        0.0197
      3 C         141.9111  143.0960  161.8760 C.ar    1  UNL1        0.0030
      4 C         140.8811  143.3519  162.9360 C.ar    1  UNL1        0.0174
      5 C         141.1701  142.9956  164.3642 C.ar    1  UNL1       -0.0027
      6 C         140.1401  143.2515  165.4242 C.ar    1  UNL1       -0.0207
      7 C         138.8211  143.8637  165.0560 C.ar    1  UNL1       -0.0027
      8 C         138.5321  144.2200  163.6279 C.ar    1  UNL1        0.0188
      9 C         139.5621  143.9641  162.5679 C.ar    1  UNL1        0.0812
     10 N         139.2732  144.3204  161.1398 N.ar    1  UNL1       -0.2448
     11 C         140.1030  146.6833  155.4991 C.3     1  UNL1        0.0594
     12 C         139.9221  145.6245  156.5461 C.ar    1  UNL1        0.0883
     13 N         139.2166  144.3137  156.3618 N.ar    1  UNL1       -0.2470
     14 C         139.2735  143.5698  157.6631 C.ar    1  UNL1        0.0670
     15 C         138.6918  142.2130  157.9292 C.3     1  UNL1        0.0527
     16 C         140.0141  144.4209  158.6516 C.ar    1  UNL1        0.0617
     17 S         140.4150  145.6908  157.9613 S.2     1  UNL1       -0.0696
     18 C         140.4291  142.8952  166.8523 C.3     1  UNL1        0.0437
     19 C         140.1663  141.5033  167.3460 C.3     1  UNL1        0.0768
     20 N         140.5726  140.3232  166.5140 N.3     1  UNL1       -0.2737
     21 C         141.9322  139.6901  166.4863 C.3     1  UNL1        0.0721
     22 C         141.8905  138.5446  165.5188 C.3     1  UNL1        0.0187
     23 C         140.5051  138.4698  164.9485 C.3     1  UNL1        0.0174
     24 C         139.6907  139.5690  165.5635 C.3     1  UNL1        0.0576
     25 C         138.2476  139.8625  165.2782 C.3     1  UNL1        0.0173
@<TRIPOS>BOND
     1    11    12    1
     2    12    13   ar
     3    13    14   ar
     4    14    15    1
     5    14    16   ar
     6    16     1    1
     7     1     2   ar
     8     2     3   ar
     9     3     4   ar
    10     4     5   ar
    11     5     6   ar
    12     6    18    1
    13    18    19    1
    14    19    20    1
    15    20    21    1
    16    21    22    1
    17    22    23    1
    18    23    24    1
    19    24    25    1
    20     6     7   ar
    21     7     8   ar
    22     8     9   ar
    23     9    10   ar
    24    16    17   ar
    25    17    12   ar
    26    10     1   ar
    27     9     4   ar
    28    24    20    1
@<TRIPOS>MOLECULE
*****
 25 28 0 0 0
SMALL
GASTEIGER

@<TRIPOS>ATOM
      1 C         138.4751  140.1891  160.2513 C.ar    1  UNL1        0.0884
      2 C         138.1279  141.4813  160.9291 C.ar    1  UNL1        0.0197
      3 C         138.0475  141.5452  162.4256 C.ar    1  UNL1        0.0030
      4 C         138.3144  140.3169  163.2442 C.ar    1  UNL1        0.0174
      5 C         138.2340  140.3809  164.7407 C.ar    1  UNL1       -0.0027
      6 C         138.5008  139.1526  165.5593 C.ar    1  UNL1       -0.0207
      7 C         138.8481  137.8603  164.8814 C.ar    1  UNL1       -0.0027
      8 C         138.9285  137.7964  163.3849 C.ar    1  UNL1        0.0188
      9 C         138.6616  139.0247  162.5663 C.ar    1  UNL1        0.0812
     10 N         138.7420  138.9608  161.0699 N.ar    1  UNL1       -0.2448
     11 C         137.4630  140.9788  155.1295 C.3     1  UNL1        0.0594
     12 C         138.0903  140.4881  156.4005 C.ar    1  UNL1        0.0883
     13 N         139.2683  139.5651  156.5033 N.ar    1  UNL1       -0.2470
     14 C         139.5558  139.3408  157.9583 C.ar    1  UNL1        0.0670
     15 C         140.6512  138.4828  158.5184 C.3     1  UNL1        0.0527
     16 C         138.5555  140.1251  158.7548 C.ar    1  UNL1        0.0617
     17 S         137.6498  140.8342  157.7920 S.2     1  UNL1       -0.0696
     18 C         138.4205  139.2165  167.0557 C.3     1  UNL1        0.0437
     19 C         139.5114  139.8864  167.8375 C.3     1  UNL1        0.0768
     20 N         140.7881  140.2815  167.1564 N.3     1  UNL1       -0.2737
     21 C         141.9420  139.3732  166.8507 C.3     1  UNL1        0.0721
     22 C         143.0021  140.1846  166.1668 C.3     1  UNL1        0.0187
     23 C         142.5034  141.5945  166.0498 C.3     1  UNL1        0.0174
     24 C         141.1350  141.6543  166.6615 C.3     1  UNL1        0.0576
     25 C         140.2662  142.8730  166.7607 C.3     1  UNL1        0.0173
@<TRIPOS>BOND
     1    11    12    1
     2    12    13   ar
     3    13    14   ar
     4    14    15    1
     5    14    16   ar
     6    16     1    1
     7     1     2   ar
     8     2     3   ar
     9     3     4   ar
    10     4     5   ar
    11     5     6   ar
    12     6    18    1
    13    18    19    1
    14    19    20    1
    15    20    21    1
    16    21    22    1
    17    22    23    1
    18    23    24    1
    19    24    25    1
    20     6     7   ar
    21     7     8   ar
    22     8     9   ar
    23     9    10   ar
    24    16    17   ar
    25    17    12   ar
    26    10     1   ar
    27     9     4   ar
    28    24    20    1
