@<TRIPOS>MOLECULE
*****
 30 32 0 0 0
SMALL
GASTEIGER

@<TRIPOS>ATOM
      1 C         143.7806  142.9355  162.2856 C.ar    1  UNL1        0.1483
      2 N         143.9110  141.5031  161.8599 N.ar    1  UNL1       -0.1978
      3 C         144.3445  140.4630  162.8500 C.ar    1  UNL1        0.2183
      4 N         144.6476  140.8553  164.2657 N.ar    1  UNL1       -0.2113
      5 C         144.5172  142.2877  164.6914 C.ar    1  UNL1        0.1160
      6 C         144.0837  143.3278  163.7013 C.ar    1  UNL1        0.1085
      7 CL        143.9533  144.7603  164.1270 Cl      1  UNL1       -0.0777
      8 N         143.3471  143.9757  161.2955 N.pl3   1  UNL1       -0.2811
      9 H         144.0023  144.3659  160.6728 H       1  UNL1        0.1551
     10 C         139.5788  144.7369  161.8292 C.ar    1  UNL1        0.2214
     11 C         140.8577  144.0841  162.2629 C.ar    1  UNL1        0.0932
     12 C         141.9155  144.4214  161.2543 C.ar    1  UNL1        0.1575
     13 N         141.2903  145.2828  160.1973 N.ar    1  UNL1       -0.1550
     14 N         139.8461  145.4778  160.5526 N.ar    1  UNL1       -0.2446
     15 H         139.1891  146.0003  160.0382 H       1  UNL1        0.1920
     16 O         138.2633  144.6620  162.5462 O.3     1  UNL1       -0.4643
     17 C         137.6899  142.5953  164.0125 C.3     1  UNL1        0.0473
     18 C         138.1797  144.0080  163.8936 C.3     1  UNL1        0.1678
     19 C         138.5860  144.7668  165.1221 C.3     1  UNL1        0.0473
     20 N         144.4749  139.0306  162.4243 N.pl3   1  UNL1       -0.2994
     21 H         145.3397  138.5682  162.5107 H       1  UNL1        0.1499
     22 C         143.2876  138.3027  161.8671 C.3     1  UNL1        0.1120
     23 C         143.3129  137.7965  160.4554 C.3     1  UNL1        0.0278
     24 C         142.0749  138.0810  162.7218 C.ar    1  UNL1        0.0769
     25 C         142.1796  138.1874  164.2143 C.ar    1  UNL1        0.0187
     26 C         140.9670  137.9657  165.0688 C.ar    1  UNL1        0.0325
     27 C         139.6496  137.6376  164.4309 C.ar    1  UNL1        0.1592
     28 F         138.4370  137.4159  165.2855 F       1  UNL1       -0.2025
     29 C         139.5449  137.5312  162.9384 C.ar    1  UNL1        0.1280
     30 N         140.7576  137.7529  162.0838 N.ar    1  UNL1       -0.2442
@<TRIPOS>BOND
     1    17    18    1
     2    18    19    1
     3    18    16    1
     4    16    10    1
     5    10    11   ar
     6    11    12   ar
     7    12     8    1
     8     8     1    1
     9     1     2   ar
    10     2     3   ar
    11     3    20    1
    12    20    22    1
    13    22    23    1
    14    22    24    1
    15    24    25   ar
    16    25    26   ar
    17    26    27   ar
    18    27    28    1
    19    27    29   ar
    20    29    30   ar
    21     3     4   ar
    22     4     5   ar
    23     5     6   ar
    24     6     7    1
    25    12    13   ar
    26    13    14   ar
    27    14    10   ar
    28     6     1   ar
    29    30    24   ar
    30     8     9    1
    31    20    21    1
    32    14    15    1
@<TRIPOS>MOLECULE
*****
 30 32 0 0 0
SMALL
GASTEIGER

@<TRIPOS>ATOM
      1 C         144.0738  141.8957  165.0179 C.ar    1  UNL1        0.1483
      2 N         143.1213  141.3970  166.0639 N.ar    1  UNL1       -0.1978
      3 C         142.9947  139.9249  166.3222 C.ar    1  UNL1        0.2183
      4 N         143.8205  138.9514  165.5346 N.ar    1  UNL1       -0.2113
      5 C         144.7730  139.4501  164.4886 C.ar    1  UNL1        0.1160
      6 C         144.8996  140.9222  164.2303 C.ar    1  UNL1        0.1085
      7 CL        145.8521  141.4209  163.1843 Cl      1  UNL1       -0.0777
      8 N         144.2005  143.3679  164.7595 N.pl3   1  UNL1       -0.2811
      9 H         144.9378  143.8775  165.1669 H       1  UNL1        0.1551
     10 C         141.1350  145.0137  163.0394 C.ar    1  UNL1        0.2214
     11 C         141.7522  144.2776  164.1915 C.ar    1  UNL1        0.0932
     12 C         143.2039  144.0635  163.8806 C.ar    1  UNL1        0.1575
     13 N         143.4839  144.6673  162.5363 N.ar    1  UNL1       -0.1550
     14 N         142.2053  145.2546  162.0164 N.ar    1  UNL1       -0.2446
     15 H         142.0890  145.7169  161.1550 H       1  UNL1        0.1920
     16 O         139.6995  145.4350  162.9296 O.3     1  UNL1       -0.4643
     17 C         138.4402  144.7516  165.0970 C.3     1  UNL1        0.0473
     18 C         138.6292  144.6369  163.6134 C.3     1  UNL1        0.1678
     19 C         137.7478  143.7239  162.8135 C.3     1  UNL1        0.0473
     20 N         142.0421  139.4262  167.3683 N.pl3   1  UNL1       -0.2994
     21 H         142.3716  138.8635  168.1059 H       1  UNL1        0.1499
     22 C         140.5877  139.7849  167.2903 C.3     1  UNL1        0.1120
     23 C         139.8869  140.3412  168.4942 C.3     1  UNL1        0.0278
     24 C         139.8341  139.5871  166.0085 C.ar    1  UNL1        0.0769
     25 C         138.8937  140.6487  165.5199 C.ar    1  UNL1        0.0187
     26 C         138.1402  140.4509  164.2382 C.ar    1  UNL1        0.0325
     27 C         138.3271  139.1916  163.4449 C.ar    1  UNL1        0.1592
     28 F         137.5735  138.9939  162.1631 F       1  UNL1       -0.2025
     29 C         139.2675  138.1301  163.9334 C.ar    1  UNL1        0.1280
     30 N         140.0210  138.3278  165.2152 N.ar    1  UNL1       -0.2442
@<TRIPOS>BOND
     1    17    18    1
     2    18    19    1
     3    18    16    1
     4    16    10    1
     5    10    11   ar
     6    11    12   ar
     7    12     8    1
     8     8     1    1
     9     1     2   ar
    10     2     3   ar
    11     3    20    1
    12    20    22    1
    13    22    23    1
    14    22    24    1
    15    24    25   ar
    16    25    26   ar
    17    26    27   ar
    18    27    28    1
    19    27    29   ar
    20    29    30   ar
    21     3     4   ar
    22     4     5   ar
    23     5     6   ar
    24     6     7    1
    25    12    13   ar
    26    13    14   ar
    27    14    10   ar
    28     6     1   ar
    29    30    24   ar
    30     8     9    1
    31    20    21    1
    32    14    15    1
@<TRIPOS>MOLECULE
*****
 30 32 0 0 0
SMALL
GASTEIGER

@<TRIPOS>ATOM
      1 C         137.9100  140.2344  163.6127 C.ar    1  UNL1        0.1483
      2 N         137.9587  140.2557  165.1117 N.ar    1  UNL1       -0.1978
      3 C         138.4764  139.0647  165.8622 C.ar    1  UNL1        0.2183
      4 N         138.9454  137.8523  165.1137 N.ar    1  UNL1       -0.2113
      5 C         138.8967  137.8310  163.6147 C.ar    1  UNL1        0.1160
      6 C         138.3789  139.0220  162.8642 C.ar    1  UNL1        0.1085
      7 CL        138.3302  139.0007  161.3651 Cl      1  UNL1       -0.0777
      8 N         137.3922  141.4255  162.8620 N.pl3   1  UNL1       -0.2811
      9 H         136.5500  141.3606  162.3564 H       1  UNL1        0.1551
     10 C         139.8516  144.3870  163.3578 C.ar    1  UNL1        0.2214
     11 C         139.4422  142.9670  163.6144 C.ar    1  UNL1        0.0932
     12 C         138.1577  142.7152  162.8818 C.ar    1  UNL1        0.1575
     13 N         137.7732  143.9797  162.1724 N.ar    1  UNL1       -0.1550
     14 N         138.8200  145.0130  162.4665 N.ar    1  UNL1       -0.2446
     15 H         138.8286  145.9393  162.1332 H       1  UNL1        0.1920
     16 O         141.0772  145.0626  163.8976 O.3     1  UNL1       -0.4643
     17 C         143.6705  145.0875  164.0539 C.3     1  UNL1        0.0473
     18 C         142.4182  144.7836  163.2862 C.3     1  UNL1        0.1678
     19 C         142.5070  144.2005  161.9069 C.3     1  UNL1        0.0473
     20 N         138.5252  139.0860  167.3613 N.pl3   1  UNL1       -0.2994
     21 H         137.9171  138.5128  167.8818 H       1  UNL1        0.1499
     22 C         139.5005  139.9806  168.0673 C.3     1  UNL1        0.1120
     23 C         139.2629  140.3694  169.4964 C.3     1  UNL1        0.0278
     24 C         140.7135  140.4864  167.3442 C.ar    1  UNL1        0.0769
     25 C         140.8228  141.9394  166.9880 C.ar    1  UNL1        0.0187
     26 C         142.0358  142.4451  166.2649 C.ar    1  UNL1        0.0325
     27 C         143.1395  141.4978  165.8980 C.ar    1  UNL1        0.1592
     28 F         144.3525  142.0036  165.1749 F       1  UNL1       -0.2025
     29 C         143.0302  140.0449  166.2542 C.ar    1  UNL1        0.1280
     30 N         141.8172  139.5392  166.9773 N.ar    1  UNL1       -0.2442
@<TRIPOS>BOND
     1    17    18    1
     2    18    19    1
     3    18    16    1
     4    16    10    1
     5    10    11   ar
     6    11    12   ar
     7    12     8    1
     8     8     1    1
     9     1     2   ar
    10     2     3   ar
    11     3    20    1
    12    20    22    1
    13    22    23    1
    14    22    24    1
    15    24    25   ar
    16    25    26   ar
    17    26    27   ar
    18    27    28    1
    19    27    29   ar
    20    29    30   ar
    21     3     4   ar
    22     4     5   ar
    23     5     6   ar
    24     6     7    1
    25    12    13   ar
    26    13    14   ar
    27    14    10   ar
    28     6     1   ar
    29    30    24   ar
    30     8     9    1
    31    20    21    1
    32    14    15    1
@<TRIPOS>MOLECULE
*****
 30 32 0 0 0
SMALL
GASTEIGER

@<TRIPOS>ATOM
      1 C         138.1896  141.9239  161.4822 C.ar    1  UNL1        0.1483
      2 N         138.0763  141.8412  162.9756 N.ar    1  UNL1       -0.1978
      3 C         137.9194  140.5072  163.6430 C.ar    1  UNL1        0.2183
      4 N         137.8757  139.2558  162.8171 N.ar    1  UNL1       -0.2113
      5 C         137.9890  139.3385  161.3237 C.ar    1  UNL1        0.1160
      6 C         138.1459  140.6726  160.6562 C.ar    1  UNL1        0.1085
      7 CL        138.2592  140.7553  159.1628 Cl      1  UNL1       -0.0777
      8 N         138.3465  143.2581  160.8146 N.pl3   1  UNL1       -0.2811
      9 H         137.5653  143.7024  160.4128 H       1  UNL1        0.1551
     10 C         142.0477  144.3880  161.1145 C.ar    1  UNL1        0.2214
     11 C         140.9397  143.4305  161.4395 C.ar    1  UNL1        0.0932
     12 C         139.6938  143.9151  160.7592 C.ar    1  UNL1        0.1575
     13 N         140.0317  145.1722  160.0138 N.ar    1  UNL1       -0.1550
     14 N         141.4865  145.4645  160.2334 N.ar    1  UNL1       -0.2446
     15 H         141.9854  146.2286  159.8641 H       1  UNL1        0.1920
     16 O         143.4675  144.2868  161.5876 O.3     1  UNL1       -0.4643
     17 C         144.1435  142.6011  163.4456 C.3     1  UNL1        0.0473
     18 C         143.7585  143.9897  163.0288 C.3     1  UNL1        0.1678
     19 C         143.6645  145.0813  164.0534 C.3     1  UNL1        0.0473
     20 N         137.8061  140.4244  165.1365 N.pl3   1  UNL1       -0.2994
     21 H         137.2557  141.0781  165.6254 H       1  UNL1        0.1499
     22 C         138.5315  139.3457  165.8850 C.3     1  UNL1        0.1120
     23 C         137.7717  138.4150  166.7830 C.3     1  UNL1        0.0278
     24 C         140.0167  139.1978  165.7355 C.ar    1  UNL1        0.0769
     25 C         140.5816  138.0396  164.9679 C.ar    1  UNL1        0.0187
     26 C         142.0667  137.8917  164.8184 C.ar    1  UNL1        0.0325
     27 C         142.9870  138.9021  165.4366 C.ar    1  UNL1        0.1592
     28 F         144.4723  138.7542  165.2871 F       1  UNL1       -0.2025
     29 C         142.4222  140.0604  166.2043 C.ar    1  UNL1        0.1280
     30 N         140.9370  140.2082  166.3537 N.ar    1  UNL1       -0.2442
@<TRIPOS>BOND
     1    17    18    1
     2    18    19    1
     3    18    16    1
     4    16    10    1
     5    10    11   ar
     6    11    12   ar
     7    12     8    1
     8     8     1    1
     9     1     2   ar
    10     2     3   ar
    11     3    20    1
    12    20    22    1
    13    22    23    1
    14    22    24    1
    15    24    25   ar
    16    25    26   ar
    17    26    27   ar
    18    27    28    1
    19    27    29   ar
    20    29    30   ar
    21     3     4   ar
    22     4     5   ar
    23     5     6   ar
    24     6     7    1
    25    12    13   ar
    26    13    14   ar
    27    14    10   ar
    28     6     1   ar
    29    30    24   ar
    30     8     9    1
    31    20    21    1
    32    14    15    1
@<TRIPOS>MOLECULE
*****
 30 32 0 0 0
SMALL
GASTEIGER

@<TRIPOS>ATOM
      1 C         138.4353  139.9480  163.7761 C.ar    1  UNL1        0.1483
      2 N         138.4909  141.4052  164.1273 N.ar    1  UNL1       -0.1978
      3 C         138.1149  142.4377  163.1063 C.ar    1  UNL1        0.2183
      4 N         137.6834  142.0129  161.7339 N.ar    1  UNL1       -0.2113
      5 C         137.6278  140.5557  161.3826 C.ar    1  UNL1        0.1160
      6 C         138.0038  139.5233  162.4037 C.ar    1  UNL1        0.1085
      7 CL        137.9483  138.0660  162.0524 Cl      1  UNL1       -0.0777
      8 N         138.8113  138.9155  164.7972 N.pl3   1  UNL1       -0.2811
      9 H         138.3634  138.0388  164.7987 H       1  UNL1        0.1551
     10 C         140.9834  140.0088  167.8223 C.ar    1  UNL1        0.2214
     11 C         139.6585  139.9203  167.1247 C.ar    1  UNL1        0.0932
     12 C         139.8697  139.2187  165.8158 C.ar    1  UNL1        0.1575
     13 N         141.3253  138.8736  165.7046 N.ar    1  UNL1       -0.1550
     14 N         142.0136  139.3619  166.9446 N.ar    1  UNL1       -0.2446
     15 H         142.9730  139.2733  167.1470 H       1  UNL1        0.1920
     16 O         141.2342  140.6344  169.1624 O.3     1  UNL1       -0.4643
     17 C         140.7039  143.1715  169.3419 C.3     1  UNL1        0.0473
     18 C         141.7031  142.0565  169.2503 C.3     1  UNL1        0.1678
     19 C         143.1713  142.3637  169.2466 C.3     1  UNL1        0.0473
     20 N         138.1705  143.8950  163.4575 N.pl3   1  UNL1       -0.2994
     21 H         137.6656  144.5497  162.9231 H       1  UNL1        0.1499
     22 C         138.9953  144.3546  164.6231 C.3     1  UNL1        0.1120
     23 C         138.3420  145.0692  165.7688 C.3     1  UNL1        0.0278
     24 C         140.4733  144.0995  164.6429 C.ar    1  UNL1        0.0769
     25 C         141.0369  143.0232  165.5225 C.ar    1  UNL1        0.0187
     26 C         142.5150  142.7682  165.5423 C.ar    1  UNL1        0.0325
     27 C         143.4293  143.5896  164.6826 C.ar    1  UNL1        0.1592
     28 F         144.9074  143.3346  164.7024 F       1  UNL1       -0.2025
     29 C         142.8657  144.6660  163.8030 C.ar    1  UNL1        0.1280
     30 N         141.3877  144.9209  163.7832 N.ar    1  UNL1       -0.2442
@<TRIPOS>BOND
     1    17    18    1
     2    18    19    1
     3    18    16    1
     4    16    10    1
     5    10    11   ar
     6    11    12   ar
     7    12     8    1
     8     8     1    1
     9     1     2   ar
    10     2     3   ar
    11     3    20    1
    12    20    22    1
    13    22    23    1
    14    22    24    1
    15    24    25   ar
    16    25    26   ar
    17    26    27   ar
    18    27    28    1
    19    27    29   ar
    20    29    30   ar
    21     3     4   ar
    22     4     5   ar
    23     5     6   ar
    24     6     7    1
    25    12    13   ar
    26    13    14   ar
    27    14    10   ar
    28     6     1   ar
    29    30    24   ar
    30     8     9    1
    31    20    21    1
    32    14    15    1
@<TRIPOS>MOLECULE
*****
 30 32 0 0 0
SMALL
GASTEIGER

@<TRIPOS>ATOM
      1 C         143.3791  142.7478  164.5782 C.ar    1  UNL1        0.1483
      2 N         142.3328  143.8141  164.4433 N.ar    1  UNL1       -0.1978
      3 C         142.3935  144.7841  163.3008 C.ar    1  UNL1        0.2183
      4 N         143.5006  144.6878  162.2932 N.ar    1  UNL1       -0.2113
      5 C         144.5468  143.6215  162.4281 C.ar    1  UNL1        0.1160
      6 C         144.4861  142.6515  163.5706 C.ar    1  UNL1        0.1085
      7 CL        145.5324  141.5851  163.7056 Cl      1  UNL1       -0.0777
      8 N         143.3184  141.7777  165.7207 N.pl3   1  UNL1       -0.2811
      9 H         144.1485  141.3945  166.0858 H       1  UNL1        0.1551
     10 C         139.7263  140.5546  166.5368 C.ar    1  UNL1        0.2214
     11 C         140.8468  140.7720  165.5636 C.ar    1  UNL1        0.0932
     12 C         141.9929  141.3915  166.3070 C.ar    1  UNL1        0.1575
     13 N         141.5807  141.5569  167.7398 N.ar    1  UNL1       -0.1550
     14 N         140.1799  141.0397  167.8818 N.ar    1  UNL1       -0.2446
     15 H         139.6510  141.0217  168.7120 H       1  UNL1        0.1920
     16 O         138.3873  139.9570  166.2205 O.3     1  UNL1       -0.4643
     17 C         137.3325  137.7620  167.1259 C.3     1  UNL1        0.0473
     18 C         138.2285  138.4670  166.1511 C.3     1  UNL1        0.1678
     19 C         138.9657  137.6820  165.1069 C.3     1  UNL1        0.0473
     20 N         141.3472  145.8505  163.1658 N.pl3   1  UNL1       -0.2994
     21 H         141.4912  146.7356  163.5720 H       1  UNL1        0.1499
     22 C         140.0815  145.5681  162.4119 C.3     1  UNL1        0.1120
     23 C         139.5703  146.5578  161.4074 C.3     1  UNL1        0.0278
     24 C         139.3271  144.2961  162.6625 C.ar    1  UNL1        0.0769
     25 C         138.5947  144.1010  163.9569 C.ar    1  UNL1        0.0187
     26 C         137.8404  142.8290  164.2075 C.ar    1  UNL1        0.0325
     27 C         137.8184  141.7520  163.1637 C.ar    1  UNL1        0.1592
     28 F         137.0640  140.4799  163.4143 F       1  UNL1       -0.2025
     29 C         138.5508  141.9470  161.8693 C.ar    1  UNL1        0.1280
     30 N         139.3052  143.2190  161.6187 N.ar    1  UNL1       -0.2442
@<TRIPOS>BOND
     1    17    18    1
     2    18    19    1
     3    18    16    1
     4    16    10    1
     5    10    11   ar
     6    11    12   ar
     7    12     8    1
     8     8     1    1
     9     1     2   ar
    10     2     3   ar
    11     3    20    1
    12    20    22    1
    13    22    23    1
    14    22    24    1
    15    24    25   ar
    16    25    26   ar
    17    26    27   ar
    18    27    28    1
    19    27    29   ar
    20    29    30   ar
    21     3     4   ar
    22     4     5   ar
    23     5     6   ar
    24     6     7    1
    25    12    13   ar
    26    13    14   ar
    27    14    10   ar
    28     6     1   ar
    29    30    24   ar
    30     8     9    1
    31    20    21    1
    32    14    15    1
@<TRIPOS>MOLECULE
*****
 30 32 0 0 0
SMALL
GASTEIGER

@<TRIPOS>ATOM
      1 C         144.1473  141.8835  165.1027 C.ar    1  UNL1        0.1483
      2 N         143.2431  141.2358  166.1092 N.ar    1  UNL1       -0.1978
      3 C         143.1862  139.7406  166.2136 C.ar    1  UNL1        0.2183
      4 N         144.0333  138.8930  165.3115 N.ar    1  UNL1       -0.2113
      5 C         144.9375  139.5406  164.3050 C.ar    1  UNL1        0.1160
      6 C         144.9945  141.0358  164.2006 C.ar    1  UNL1        0.1085
      7 CL        145.8986  141.6835  163.1941 Cl      1  UNL1       -0.0777
      8 N         144.2043  143.3788  164.9983 N.pl3   1  UNL1       -0.2811
      9 H         144.9926  143.8658  165.3311 H       1  UNL1        0.1551
     10 C         140.8220  144.7720  163.7005 C.ar    1  UNL1        0.2214
     11 C         141.6148  143.7347  164.4391 C.ar    1  UNL1        0.0932
     12 C         143.0603  144.1321  164.3870 C.ar    1  UNL1        0.1575
     13 N         143.1608  145.4150  163.6163 N.ar    1  UNL1       -0.1550
     14 N         141.7775  145.8106  163.1920 N.ar    1  UNL1       -0.2446
     15 H         141.5387  146.6112  162.6713 H       1  UNL1        0.1920
     16 O         139.3348  144.7710  163.5048 O.3     1  UNL1       -0.4643
     17 C         138.3474  145.0478  165.8920 C.3     1  UNL1        0.0473
     18 C         138.4343  144.2868  164.6023 C.3     1  UNL1        0.1678
     19 C         137.6204  143.0415  164.4101 C.3     1  UNL1        0.0473
     20 N         142.2820  139.0929  167.2201 N.pl3   1  UNL1       -0.2994
     21 H         141.6595  138.3841  166.9384 H       1  UNL1        0.1499
     22 C         142.3263  139.5251  168.6558 C.3     1  UNL1        0.1120
     23 C         142.8306  138.5822  169.7077 C.3     1  UNL1        0.0278
     24 C         141.8663  140.9003  169.0396 C.ar    1  UNL1        0.0769
     25 C         140.5393  141.4085  168.5594 C.ar    1  UNL1        0.0187
     26 C         140.0794  142.7837  168.9432 C.ar    1  UNL1        0.0325
     27 C         140.9465  143.6507  169.8071 C.ar    1  UNL1        0.1592
     28 F         140.4865  145.0259  170.1909 F       1  UNL1       -0.2025
     29 C         142.2736  143.1425  170.2873 C.ar    1  UNL1        0.1280
     30 N         142.7335  141.7673  169.9035 N.ar    1  UNL1       -0.2442
@<TRIPOS>BOND
     1    17    18    1
     2    18    19    1
     3    18    16    1
     4    16    10    1
     5    10    11   ar
     6    11    12   ar
     7    12     8    1
     8     8     1    1
     9     1     2   ar
    10     2     3   ar
    11     3    20    1
    12    20    22    1
    13    22    23    1
    14    22    24    1
    15    24    25   ar
    16    25    26   ar
    17    26    27   ar
    18    27    28    1
    19    27    29   ar
    20    29    30   ar
    21     3     4   ar
    22     4     5   ar
    23     5     6   ar
    24     6     7    1
    25    12    13   ar
    26    13    14   ar
    27    14    10   ar
    28     6     1   ar
    29    30    24   ar
    30     8     9    1
    31    20    21    1
    32    14    15    1
@<TRIPOS>MOLECULE
*****
 30 32 0 0 0
SMALL
GASTEIGER

@<TRIPOS>ATOM
      1 C         143.8129  141.3808  162.2009 C.ar    1  UNL1        0.1483
      2 N         142.8010  140.4788  161.5587 N.ar    1  UNL1       -0.1978
      3 C         142.6986  139.0439  161.9835 C.ar    1  UNL1        0.2183
      4 N         143.6082  138.5109  163.0506 N.ar    1  UNL1       -0.2113
      5 C         144.6201  139.4129  163.6928 C.ar    1  UNL1        0.1160
      6 C         144.7225  140.8478  163.2680 C.ar    1  UNL1        0.1085
      7 CL        145.7344  141.7498  163.9103 Cl      1  UNL1       -0.0777
      8 N         143.9153  142.8158  161.7761 N.pl3   1  UNL1       -0.2811
      9 H         144.6036  143.0892  161.1275 H       1  UNL1        0.1551
     10 C         140.9340  145.0263  162.9121 C.ar    1  UNL1        0.2214
     11 C         141.4762  143.8262  162.1940 C.ar    1  UNL1        0.0932
     12 C         142.9691  143.8341  162.3396 C.ar    1  UNL1        0.1575
     13 N         143.3496  145.0391  163.1478 N.ar    1  UNL1       -0.1550
     14 N         142.0919  145.7760  163.5016 N.ar    1  UNL1       -0.2446
     15 H         142.0361  146.6059  164.0282 H       1  UNL1        0.1920
     16 O         139.4879  145.4096  163.0214 O.3     1  UNL1       -0.4643
     17 C         137.6635  143.5810  163.3011 C.3     1  UNL1        0.0473
     18 C         138.5666  144.6176  163.9011 C.3     1  UNL1        0.1678
     19 C         138.5483  144.8621  165.3810 C.3     1  UNL1        0.0473
     20 N         141.6867  138.1419  161.3412 N.pl3   1  UNL1       -0.2994
     21 H         141.9825  137.3449  160.8448 H       1  UNL1        0.1499
     22 C         140.2240  138.4544  161.4554 C.3     1  UNL1        0.1120
     23 C         139.3901  138.6037  160.2176 C.3     1  UNL1        0.0278
     24 C         139.5953  138.6174  162.8075 C.ar    1  UNL1        0.0769
     25 C         139.6021  137.4758  163.7805 C.ar    1  UNL1        0.0187
     26 C         138.9734  137.6390  165.1325 C.ar    1  UNL1        0.0325
     27 C         138.3378  138.9437  165.5116 C.ar    1  UNL1        0.1592
     28 F         137.7090  139.1068  166.8637 F       1  UNL1       -0.2025
     29 C         138.3309  140.0853  164.5386 C.ar    1  UNL1        0.1280
     30 N         138.9597  139.9222  163.1866 N.ar    1  UNL1       -0.2442
@<TRIPOS>BOND
     1    17    18    1
     2    18    19    1
     3    18    16    1
     4    16    10    1
     5    10    11   ar
     6    11    12   ar
     7    12     8    1
     8     8     1    1
     9     1     2   ar
    10     2     3   ar
    11     3    20    1
    12    20    22    1
    13    22    23    1
    14    22    24    1
    15    24    25   ar
    16    25    26   ar
    17    26    27   ar
    18    27    28    1
    19    27    29   ar
    20    29    30   ar
    21     3     4   ar
    22     4     5   ar
    23     5     6   ar
    24     6     7    1
    25    12    13   ar
    26    13    14   ar
    27    14    10   ar
    28     6     1   ar
    29    30    24   ar
    30     8     9    1
    31    20    21    1
    32    14    15    1
@<TRIPOS>MOLECULE
*****
 30 32 0 0 0
SMALL
GASTEIGER

@<TRIPOS>ATOM
      1 C         142.1632  144.3197  160.6804 C.ar    1  UNL1        0.1483
      2 N         143.0664  144.0536  161.8480 N.ar    1  UNL1       -0.1978
      3 C         144.2685  143.1721  161.6807 C.ar    1  UNL1        0.2183
      4 N         144.5673  142.5567  160.3458 N.ar    1  UNL1       -0.2113
      5 C         143.6641  142.8228  159.1782 C.ar    1  UNL1        0.1160
      6 C         142.4621  143.7043  159.3455 C.ar    1  UNL1        0.1085
      7 CL        141.5588  143.9704  158.1778 Cl      1  UNL1       -0.0777
      8 N         140.9611  145.2012  160.8476 N.pl3   1  UNL1       -0.2811
      9 H         140.9953  146.1408  160.5557 H       1  UNL1        0.1551
     10 C         137.9747  143.1140  162.1855 C.ar    1  UNL1        0.2214
     11 C         139.2896  143.2104  161.4702 C.ar    1  UNL1        0.0932
     12 C         139.7070  144.6511  161.4596 C.ar    1  UNL1        0.1575
     13 N         138.6500  145.4452  162.1683 N.ar    1  UNL1       -0.1550
     14 N         137.5794  144.4952  162.6170 N.ar    1  UNL1       -0.2446
     15 H         136.7609  144.7359  163.1084 H       1  UNL1        0.1920
     16 O         137.1924  141.8571  162.4270 O.3     1  UNL1       -0.4643
     17 C         138.0378  139.4004  162.4470 C.3     1  UNL1        0.0473
     18 C         137.8259  140.7071  163.1524 C.3     1  UNL1        0.1678
     19 C         138.2475  140.8638  164.5835 C.3     1  UNL1        0.0473
     20 N         145.1717  142.9060  162.8484 N.pl3   1  UNL1       -0.2994
     21 H         146.1488  142.9414  162.7330 H       1  UNL1        0.1499
     22 C         144.5862  142.5860  164.1918 C.3     1  UNL1        0.1120
     23 C         144.6619  143.5919  165.3019 C.3     1  UNL1        0.0278
     24 C         143.9250  141.2599  164.4252 C.ar    1  UNL1        0.0769
     25 C         143.0448  141.0612  165.6233 C.ar    1  UNL1        0.0187
     26 C         142.3836  139.7352  165.8566 C.ar    1  UNL1        0.0325
     27 C         142.6027  138.6078  164.8918 C.ar    1  UNL1        0.1592
     28 F         141.9415  137.2817  165.1251 F       1  UNL1       -0.2025
     29 C         143.4830  138.8064  163.6936 C.ar    1  UNL1        0.1280
     30 N         144.1442  140.1325  163.4603 N.ar    1  UNL1       -0.2442
@<TRIPOS>BOND
     1    17    18    1
     2    18    19    1
     3    18    16    1
     4    16    10    1
     5    10    11   ar
     6    11    12   ar
     7    12     8    1
     8     8     1    1
     9     1     2   ar
    10     2     3   ar
    11     3    20    1
    12    20    22    1
    13    22    23    1
    14    22    24    1
    15    24    25   ar
    16    25    26   ar
    17    26    27   ar
    18    27    28    1
    19    27    29   ar
    20    29    30   ar
    21     3     4   ar
    22     4     5   ar
    23     5     6   ar
    24     6     7    1
    25    12    13   ar
    26    13    14   ar
    27    14    10   ar
    28     6     1   ar
    29    30    24   ar
    30     8     9    1
    31    20    21    1
    32    14    15    1
