@<TRIPOS>MOLECULE
*****
 28 32 0 0 0
SMALL
GASTEIGER

@<TRIPOS>ATOM
      1 C         140.0010  139.0418  162.0088 C.ar    1  UNL1        0.0213
      2 C         139.3493  138.3862  160.8275 C.ar    1  UNL1        0.1006
      3 N         139.9836  138.4827  159.4717 N.ar    1  UNL1       -0.2246
      4 C         141.2696  139.2349  159.2972 C.ar    1  UNL1        0.1702
      5 N         142.1227  139.4982  158.0917 N.ar    1  UNL1       -0.2052
      6 C         143.3016  140.3166  158.5280 C.ar    1  UNL1        0.1647
      7 S         143.1771  140.5590  160.0031 S.2     1  UNL1       -0.0499
      8 C         141.9213  139.8905  160.4784 C.ar    1  UNL1        0.0679
      9 C         141.2870  139.7939  161.8342 C.ar    1  UNL1        0.0112
     10 F         137.4637  138.6560  167.4322 F       1  UNL1       -0.1832
     11 C         138.0980  138.7524  166.0764 C.ar    1  UNL1        0.2223
     12 C         138.7361  137.5433  165.4592 C.ar    1  UNL1        0.0497
     13 C         139.3704  137.6398  164.1033 C.ar    1  UNL1        0.0055
     14 C         139.3666  138.9453  163.3647 C.ar    1  UNL1        0.0209
     15 C         138.7286  140.1544  163.9819 C.ar    1  UNL1        0.1013
     16 N         138.0943  140.0580  165.3377 N.ar    1  UNL1       -0.2165
     17 N         144.4103  140.8066  157.6445 N.pl3   1  UNL1       -0.2880
     18 C         144.7209  140.0902  156.3637 C.3     1  UNL1        0.0940
     19 C         145.8296  140.5801  155.4801 C.3     1  UNL1        0.0375
     20 C         146.6277  141.7864  155.8773 C.3     1  UNL1        0.0609
     21 C         146.3172  142.5028  157.1581 C.3     1  UNL1        0.0375
     22 C         145.2085  142.0129  158.0417 C.3     1  UNL1        0.0940
     23 N         147.7365  142.2764  154.9938 N.3     1  UNL1       -0.2738
     24 C         147.4711  143.3549  153.9856 C.3     1  UNL1        0.0720
     25 C         148.5798  143.8449  153.1021 C.3     1  UNL1        0.0174
     26 C         149.9538  143.2564  153.2267 C.3     1  UNL1        0.0029
     27 C         150.2192  142.1778  154.2348 C.3     1  UNL1        0.0174
     28 C         149.1105  141.6879  155.1184 C.3     1  UNL1        0.0720
@<TRIPOS>BOND
     1    10    11    1
     2    11    12   ar
     3    12    13   ar
     4    13    14   ar
     5    14     1    1
     6     1     2   ar
     7     2     3   ar
     8     3     4   ar
     9     4     5   ar
    10     5     6   ar
    11     6    17    1
    12    17    18    1
    13    18    19    1
    14    19    20    1
    15    20    23    1
    16    23    24    1
    17    24    25    1
    18    25    26    1
    19    26    27    1
    20    27    28    1
    21    20    21    1
    22    21    22    1
    23     6     7   ar
    24     7     8   ar
    25     8     9   ar
    26    14    15   ar
    27    15    16   ar
    28    16    11   ar
    29     9     1   ar
    30     8     4   ar
    31    22    17    1
    32    28    23    1
@<TRIPOS>MOLECULE
*****
 28 32 0 0 0
SMALL
GASTEIGER

@<TRIPOS>ATOM
      1 C         139.4790  141.2870  165.9035 C.ar    1  UNL1        0.0213
      2 C         138.4617  140.3764  165.2823 C.ar    1  UNL1        0.1006
      3 N         138.1210  140.5138  163.8280 N.ar    1  UNL1       -0.2246
      4 C         138.7975  141.5617  162.9949 C.ar    1  UNL1        0.1702
      5 N         138.6675  141.9312  161.5469 N.ar    1  UNL1       -0.2052
      6 C         139.6045  143.0701  161.2732 C.ar    1  UNL1        0.1647
      7 S         140.3135  143.4046  162.5521 S.2     1  UNL1       -0.0499
      8 C         139.8148  142.4723  163.6161 C.ar    1  UNL1        0.0679
      9 C         140.1555  142.3350  165.0704 C.ar    1  UNL1        0.0112
     10 F         140.8420  140.7377  171.7208 F       1  UNL1       -0.1832
     11 C         140.5012  140.8750  170.2665 C.ar    1  UNL1        0.2223
     12 C         140.9018  142.1103  169.5158 C.ar    1  UNL1        0.0497
     13 C         140.5610  142.2476  168.0614 C.ar    1  UNL1        0.0055
     14 C         139.8197  141.1497  167.3579 C.ar    1  UNL1        0.0209
     15 C         139.4192  139.9144  168.1086 C.ar    1  UNL1        0.1013
     16 N         139.7599  139.7771  169.5629 N.ar    1  UNL1       -0.2165
     17 N         139.7984  143.7545  159.9525 N.pl3   1  UNL1       -0.2880
     18 C         140.4601  145.0994  159.8948 C.3     1  UNL1        0.0940
     19 C         140.6540  145.7838  158.5742 C.3     1  UNL1        0.0375
     20 C         140.1862  145.1232  157.3114 C.3     1  UNL1        0.0609
     21 C         139.5245  143.7783  157.3691 C.3     1  UNL1        0.0375
     22 C         139.3306  143.0939  158.6897 C.3     1  UNL1        0.0940
     23 N         140.3801  145.8076  155.9907 N.3     1  UNL1       -0.2738
     24 C         139.6569  147.0883  155.6964 C.3     1  UNL1        0.0720
     25 C         139.8507  147.7727  154.3758 C.3     1  UNL1        0.0174
     26 C         140.7679  147.1764  153.3495 C.3     1  UNL1        0.0029
     27 C         141.4911  145.8956  153.6439 C.3     1  UNL1        0.0174
     28 C         141.2973  145.2113  154.9645 C.3     1  UNL1        0.0720
@<TRIPOS>BOND
     1    10    11    1
     2    11    12   ar
     3    12    13   ar
     4    13    14   ar
     5    14     1    1
     6     1     2   ar
     7     2     3   ar
     8     3     4   ar
     9     4     5   ar
    10     5     6   ar
    11     6    17    1
    12    17    18    1
    13    18    19    1
    14    19    20    1
    15    20    23    1
    16    23    24    1
    17    24    25    1
    18    25    26    1
    19    26    27    1
    20    27    28    1
    21    20    21    1
    22    21    22    1
    23     6     7   ar
    24     7     8   ar
    25     8     9   ar
    26    14    15   ar
    27    15    16   ar
    28    16    11   ar
    29     9     1   ar
    30     8     4   ar
    31    22    17    1
    32    28    23    1
@<TRIPOS>MOLECULE
*****
 28 32 0 0 0
SMALL
GASTEIGER

@<TRIPOS>ATOM
      1 C         139.9618  145.2240  157.3670 C.ar    1  UNL1        0.0213
      2 C         139.4907  143.8128  157.1759 C.ar    1  UNL1        0.1006
      3 N         139.4835  142.8611  158.3352 N.ar    1  UNL1       -0.2246
      4 C         139.9474  143.3205  159.6856 C.ar    1  UNL1        0.1702
      5 N         140.0526  142.6139  161.0047 N.ar    1  UNL1       -0.2052
      6 C         140.5887  143.5885  162.0110 C.ar    1  UNL1        0.1647
      7 S         140.8149  144.8973  161.3139 S.2     1  UNL1       -0.0499
      8 C         140.4185  144.7316  159.8768 C.ar    1  UNL1        0.0679
      9 C         140.4257  145.6834  158.7175 C.ar    1  UNL1        0.0112
     10 F         139.9907  149.0313  152.7297 F       1  UNL1       -0.1832
     11 C         139.9835  148.0795  153.8890 C.ar    1  UNL1        0.2223
     12 C         139.1199  148.3587  155.0833 C.ar    1  UNL1        0.0497
     13 C         139.1127  147.4069  156.2426 C.ar    1  UNL1        0.0055
     14 C         139.9690  146.1759  156.2077 C.ar    1  UNL1        0.0209
     15 C         140.8326  145.8966  155.0134 C.ar    1  UNL1        0.1013
     16 N         140.8398  146.8484  153.8541 N.ar    1  UNL1       -0.2165
     17 N         140.8524  143.3042  163.4601 N.pl3   1  UNL1       -0.2880
     18 C         142.2244  142.8935  163.9062 C.3     1  UNL1        0.0940
     19 C         142.4881  142.6093  165.3552 C.3     1  UNL1        0.0375
     20 C         141.3799  142.7357  166.3581 C.3     1  UNL1        0.0609
     21 C         140.0079  143.1464  165.9119 C.3     1  UNL1        0.0375
     22 C         139.7442  143.4307  164.4630 C.3     1  UNL1        0.0940
     23 N         141.6436  142.4515  167.8071 N.3     1  UNL1       -0.2738
     24 C         140.5255  142.5359  168.8035 C.3     1  UNL1        0.0720
     25 C         140.7892  142.2517  170.2525 C.3     1  UNL1        0.0174
     26 C         142.1709  141.8830  170.7051 C.3     1  UNL1        0.0029
     27 C         143.2890  141.7985  169.7087 C.3     1  UNL1        0.0174
     28 C         143.0253  142.0828  168.2597 C.3     1  UNL1        0.0720
@<TRIPOS>BOND
     1    10    11    1
     2    11    12   ar
     3    12    13   ar
     4    13    14   ar
     5    14     1    1
     6     1     2   ar
     7     2     3   ar
     8     3     4   ar
     9     4     5   ar
    10     5     6   ar
    11     6    17    1
    12    17    18    1
    13    18    19    1
    14    19    20    1
    15    20    23    1
    16    23    24    1
    17    24    25    1
    18    25    26    1
    19    26    27    1
    20    27    28    1
    21    20    21    1
    22    21    22    1
    23     6     7   ar
    24     7     8   ar
    25     8     9   ar
    26    14    15   ar
    27    15    16   ar
    28    16    11   ar
    29     9     1   ar
    30     8     4   ar
    31    22    17    1
    32    28    23    1
@<TRIPOS>MOLECULE
*****
 28 32 0 0 0
SMALL
GASTEIGER

@<TRIPOS>ATOM
      1 C         141.1973  140.3120  166.7194 C.ar    1  UNL1        0.0213
      2 C         142.3491  139.3625  166.8667 C.ar    1  UNL1        0.1006
      3 N         142.8550  138.6064  165.6742 N.ar    1  UNL1       -0.2246
      4 C         142.2092  138.7999  164.3342 C.ar    1  UNL1        0.1702
      5 N         142.4883  138.1974  162.9891 N.ar    1  UNL1       -0.2052
      6 C         141.5090  138.7747  162.0105 C.ar    1  UNL1        0.1647
      7 S         140.6247  139.7338  162.7507 S.2     1  UNL1       -0.0499
      8 C         141.0574  139.7494  164.1869 C.ar    1  UNL1        0.0679
      9 C         140.5514  140.5054  165.3794 C.ar    1  UNL1        0.0112
     10 F         139.1733  143.3364  171.4898 F       1  UNL1       -0.1832
     11 C         139.6793  142.5803  170.2973 C.ar    1  UNL1        0.2223
     12 C         140.4317  143.2996  169.2172 C.ar    1  UNL1        0.0497
     13 C         140.9377  142.5434  168.0246 C.ar    1  UNL1        0.0055
     14 C         140.6913  141.0681  167.9120 C.ar    1  UNL1        0.0209
     15 C         139.9388  140.3489  168.9921 C.ar    1  UNL1        0.1013
     16 N         139.4328  141.1049  170.1847 N.ar    1  UNL1       -0.2165
     17 N         141.4283  138.4499  160.5482 N.pl3   1  UNL1       -0.2880
     18 C         142.6328  137.9165  159.8308 C.3     1  UNL1        0.0940
     19 C         142.5520  137.5917  158.3686 C.3     1  UNL1        0.0375
     20 C         141.2668  137.8002  157.6239 C.3     1  UNL1        0.0609
     21 C         140.0623  138.3335  158.3414 C.3     1  UNL1        0.0375
     22 C         140.1430  138.6584  159.8035 C.3     1  UNL1        0.0940
     23 N         141.1860  137.4754  156.1617 N.3     1  UNL1       -0.2738
     24 C         139.8531  137.2212  155.5224 C.3     1  UNL1        0.0720
     25 C         139.7722  136.8964  154.0603 C.3     1  UNL1        0.0174
     26 C         141.0243  136.8257  153.2374 C.3     1  UNL1        0.0029
     27 C         142.3573  137.0798  153.8767 C.3     1  UNL1        0.0174
     28 C         142.4381  137.4047  155.3388 C.3     1  UNL1        0.0720
@<TRIPOS>BOND
     1    10    11    1
     2    11    12   ar
     3    12    13   ar
     4    13    14   ar
     5    14     1    1
     6     1     2   ar
     7     2     3   ar
     8     3     4   ar
     9     4     5   ar
    10     5     6   ar
    11     6    17    1
    12    17    18    1
    13    18    19    1
    14    19    20    1
    15    20    23    1
    16    23    24    1
    17    24    25    1
    18    25    26    1
    19    26    27    1
    20    27    28    1
    21    20    21    1
    22    21    22    1
    23     6     7   ar
    24     7     8   ar
    25     8     9   ar
    26    14    15   ar
    27    15    16   ar
    28    16    11   ar
    29     9     1   ar
    30     8     4   ar
    31    22    17    1
    32    28    23    1
@<TRIPOS>MOLECULE
*****
 28 32 0 0 0
SMALL
GASTEIGER

@<TRIPOS>ATOM
      1 C         143.5364  141.5543  159.5581 C.ar    1  UNL1        0.0213
      2 C         144.1626  141.8930  158.2378 C.ar    1  UNL1        0.1006
      3 N         144.2194  140.8634  157.1485 N.ar    1  UNL1       -0.2246
      4 C         143.6499  139.4951  157.3795 C.ar    1  UNL1        0.1702
      5 N         143.5619  138.2830  156.5001 N.ar    1  UNL1       -0.2052
      6 C         142.8813  137.1952  157.2769 C.ar    1  UNL1        0.1647
      7 S         142.5487  137.7349  158.6364 S.2     1  UNL1       -0.0499
      8 C         143.0237  139.1563  158.6997 C.ar    1  UNL1        0.0679
      9 C         142.9670  140.1859  159.7890 C.ar    1  UNL1        0.0112
     10 F         143.3094  145.6728  163.9155 F       1  UNL1       -0.1832
     11 C         143.3661  144.6432  162.8262 C.ar    1  UNL1        0.2223
     12 C         142.1901  144.4492  161.9155 C.ar    1  UNL1        0.0497
     13 C         142.2469  143.4196  160.8261 C.ar    1  UNL1        0.0055
     14 C         143.4796  142.5839  160.6475 C.ar    1  UNL1        0.0209
     15 C         144.6557  142.7779  161.5581 C.ar    1  UNL1        0.1013
     16 N         144.5989  143.8075  162.6475 N.ar    1  UNL1       -0.2165
     17 N         142.5853  135.8107  156.7813 N.pl3   1  UNL1       -0.2880
     18 C         143.3072  134.6338  157.3678 C.3     1  UNL1        0.0940
     19 C         143.0112  133.2494  156.8723 C.3     1  UNL1        0.0375
     20 C         141.9934  133.0417  155.7903 C.3     1  UNL1        0.0609
     21 C         141.2715  134.2185  155.2038 C.3     1  UNL1        0.0375
     22 C         141.5674  135.6030  155.6993 C.3     1  UNL1        0.0940
     23 N         141.6973  131.6572  155.2947 N.3     1  UNL1       -0.2738
     24 C         142.4566  130.4858  155.8437 C.3     1  UNL1        0.0720
     25 C         142.1606  129.1013  155.3482 C.3     1  UNL1        0.0174
     26 C         141.1054  128.8882  154.3037 C.3     1  UNL1        0.0029
     27 C         140.3461  130.0596  153.7547 C.3     1  UNL1        0.0174
     28 C         140.6421  131.4441  154.2503 C.3     1  UNL1        0.0720
@<TRIPOS>BOND
     1    10    11    1
     2    11    12   ar
     3    12    13   ar
     4    13    14   ar
     5    14     1    1
     6     1     2   ar
     7     2     3   ar
     8     3     4   ar
     9     4     5   ar
    10     5     6   ar
    11     6    17    1
    12    17    18    1
    13    18    19    1
    14    19    20    1
    15    20    23    1
    16    23    24    1
    17    24    25    1
    18    25    26    1
    19    26    27    1
    20    27    28    1
    21    20    21    1
    22    21    22    1
    23     6     7   ar
    24     7     8   ar
    25     8     9   ar
    26    14    15   ar
    27    15    16   ar
    28    16    11   ar
    29     9     1   ar
    30     8     4   ar
    31    22    17    1
    32    28    23    1
@<TRIPOS>MOLECULE
*****
 28 32 0 0 0
SMALL
GASTEIGER

@<TRIPOS>ATOM
      1 C         141.0208  141.8792  165.5364 C.ar    1  UNL1        0.0213
      2 C         139.7676  142.5082  165.0037 C.ar    1  UNL1        0.1006
      3 N         139.2839  142.1658  163.6257 N.ar    1  UNL1       -0.2246
      4 C         140.0534  141.1944  162.7806 C.ar    1  UNL1        0.1702
      5 N         139.8230  140.6673  161.3952 N.ar    1  UNL1       -0.2052
      6 C         140.9339  139.7127  161.0718 C.ar    1  UNL1        0.1647
      7 S         141.8508  139.6497  162.2573 S.2     1  UNL1       -0.0499
      8 C         141.3066  140.5654  163.3134 C.ar    1  UNL1        0.0679
      9 C         141.7903  140.9078  164.6913 C.ar    1  UNL1        0.0112
     10 F         142.9558  143.2488  171.0483 F       1  UNL1       -0.1832
     11 C         142.4720  142.9064  169.6704 C.ar    1  UNL1        0.2223
     12 C         141.0072  142.9668  169.3532 C.ar    1  UNL1        0.0497
     13 C         140.5235  142.6244  167.9752 C.ar    1  UNL1        0.0055
     14 C         141.5045  142.2216  166.9144 C.ar    1  UNL1        0.0209
     15 C         142.9694  142.1613  167.2316 C.ar    1  UNL1        0.1013
     16 N         143.4531  142.5037  168.6095 N.ar    1  UNL1       -0.2165
     17 N         141.0989  138.9541  159.7882 N.pl3   1  UNL1       -0.2880
     18 C         139.9185  138.7366  158.8886 C.3     1  UNL1        0.0940
     19 C         140.0835  137.9780  157.6051 C.3     1  UNL1        0.0375
     20 C         141.4288  137.4371  157.2213 C.3     1  UNL1        0.0609
     21 C         142.6092  137.6546  158.1210 C.3     1  UNL1        0.0375
     22 C         142.4442  138.4131  159.4044 C.3     1  UNL1        0.0940
     23 N         141.5939  136.6785  155.9377 N.3     1  UNL1       -0.2738
     24 C         142.5533  135.5277  155.8647 C.3     1  UNL1        0.0720
     25 C         142.7183  134.7692  154.5812 C.3     1  UNL1        0.0174
     26 C         141.9240  135.1614  153.3708 C.3     1  UNL1        0.0029
     27 C         140.9646  136.3121  153.4438 C.3     1  UNL1        0.0174
     28 C         140.7996  137.0707  154.7273 C.3     1  UNL1        0.0720
@<TRIPOS>BOND
     1    10    11    1
     2    11    12   ar
     3    12    13   ar
     4    13    14   ar
     5    14     1    1
     6     1     2   ar
     7     2     3   ar
     8     3     4   ar
     9     4     5   ar
    10     5     6   ar
    11     6    17    1
    12    17    18    1
    13    18    19    1
    14    19    20    1
    15    20    23    1
    16    23    24    1
    17    24    25    1
    18    25    26    1
    19    26    27    1
    20    27    28    1
    21    20    21    1
    22    21    22    1
    23     6     7   ar
    24     7     8   ar
    25     8     9   ar
    26    14    15   ar
    27    15    16   ar
    28    16    11   ar
    29     9     1   ar
    30     8     4   ar
    31    22    17    1
    32    28    23    1
@<TRIPOS>MOLECULE
*****
 28 32 0 0 0
SMALL
GASTEIGER

@<TRIPOS>ATOM
      1 C         142.2667  142.1237  166.0827 C.ar    1  UNL1        0.0213
      2 C         143.6601  142.6789  166.0752 C.ar    1  UNL1        0.1006
      3 N         144.2035  143.3244  164.8351 N.ar    1  UNL1       -0.2246
      4 C         143.3535  143.4147  163.6025 C.ar    1  UNL1        0.1702
      5 N         143.6158  143.9904  162.2423 N.ar    1  UNL1       -0.2052
      6 C         142.3845  143.7909  161.4093 C.ar    1  UNL1        0.1647
      7 S         141.3612  143.0920  162.2545 S.2     1  UNL1       -0.0499
      8 C         141.9601  142.8595  163.6100 C.ar    1  UNL1        0.0679
      9 C         141.4167  142.2140  164.8501 C.ar    1  UNL1        0.0112
     10 F         140.0927  139.5416  171.0433 F       1  UNL1       -0.1832
     11 C         140.6362  140.1871  169.8032 C.ar    1  UNL1        0.2223
     12 C         141.8830  139.6517  169.1638 C.ar    1  UNL1        0.0497
     13 C         142.4265  140.2973  167.9236 C.ar    1  UNL1        0.0055
     14 C         141.7232  141.4782  167.3229 C.ar    1  UNL1        0.0209
     15 C         140.4764  142.0135  167.9623 C.ar    1  UNL1        0.1013
     16 N         139.9329  141.3681  169.2024 N.ar    1  UNL1       -0.2165
     17 N         142.2075  144.2157  159.9816 N.pl3   1  UNL1       -0.2880
     18 C         141.2278  145.2981  159.6371 C.3     1  UNL1        0.0940
     19 C         141.0508  145.7230  158.2095 C.3     1  UNL1        0.0375
     20 C         141.8534  145.0654  157.1263 C.3     1  UNL1        0.0609
     21 C         142.8331  143.9829  157.4708 C.3     1  UNL1        0.0375
     22 C         143.0101  143.5581  158.8984 C.3     1  UNL1        0.0940
     23 N         141.6764  145.4902  155.6986 N.3     1  UNL1       -0.2738
     24 C         142.5828  144.9438  154.6357 C.3     1  UNL1        0.0720
     25 C         142.4059  145.3686  153.2081 C.3     1  UNL1        0.0174
     26 C         141.3225  146.3398  152.8434 C.3     1  UNL1        0.0029
     27 C         140.4160  146.8861  153.9063 C.3     1  UNL1        0.0174
     28 C         140.5930  146.4614  155.3339 C.3     1  UNL1        0.0720
@<TRIPOS>BOND
     1    10    11    1
     2    11    12   ar
     3    12    13   ar
     4    13    14   ar
     5    14     1    1
     6     1     2   ar
     7     2     3   ar
     8     3     4   ar
     9     4     5   ar
    10     5     6   ar
    11     6    17    1
    12    17    18    1
    13    18    19    1
    14    19    20    1
    15    20    23    1
    16    23    24    1
    17    24    25    1
    18    25    26    1
    19    26    27    1
    20    27    28    1
    21    20    21    1
    22    21    22    1
    23     6     7   ar
    24     7     8   ar
    25     8     9   ar
    26    14    15   ar
    27    15    16   ar
    28    16    11   ar
    29     9     1   ar
    30     8     4   ar
    31    22    17    1
    32    28    23    1
@<TRIPOS>MOLECULE
*****
 28 32 0 0 0
SMALL
GASTEIGER

@<TRIPOS>ATOM
      1 C         142.9362  137.5197  156.9164 C.ar    1  UNL1        0.0213
      2 C         143.5438  138.8595  156.6234 C.ar    1  UNL1        0.1006
      3 N         143.7972  139.8284  157.7400 N.ar    1  UNL1       -0.2246
      4 C         143.4430  139.4577  159.1496 C.ar    1  UNL1        0.1702
      5 N         143.5754  140.2002  160.4463 N.ar    1  UNL1       -0.2052
      6 C         143.0496  139.3194  161.5406 C.ar    1  UNL1        0.1647
      7 S         142.5923  138.0324  160.9203 S.2     1  UNL1       -0.0499
      8 C         142.8354  138.1179  159.4427 C.ar    1  UNL1        0.0679
      9 C         142.5820  137.1489  158.3261 C.ar    1  UNL1        0.0112
     10 F         141.9226  133.6437  152.4499 F       1  UNL1       -0.1832
     11 C         142.1760  134.6126  153.5665 C.ar    1  UNL1        0.2223
     12 C         142.4843  134.1055  154.9442 C.ar    1  UNL1        0.0497
     13 C         142.7377  135.0746  156.0608 C.ar    1  UNL1        0.0055
     14 C         142.6828  136.5507  155.7998 C.ar    1  UNL1        0.0209
     15 C         142.3745  137.0578  154.4222 C.ar    1  UNL1        0.1013
     16 N         142.1211  136.0888  153.3056 N.ar    1  UNL1       -0.2165
     17 N         142.9914  139.6647  162.9992 N.pl3   1  UNL1       -0.2880
     18 C         143.6446  138.7681  164.0089 C.3     1  UNL1        0.0940
     19 C         143.5864  139.1134  165.4674 C.3     1  UNL1        0.0375
     20 C         142.8751  140.3554  165.9162 C.3     1  UNL1        0.0609
     21 C         142.2219  141.2520  164.9066 C.3     1  UNL1        0.0375
     22 C         142.2801  140.9067  163.4480 C.3     1  UNL1        0.0940
     23 N         142.8169  140.7007  167.3748 N.3     1  UNL1       -0.2738
     24 C         143.0619  142.1115  167.8219 C.3     1  UNL1        0.0720
     25 C         143.0037  142.4569  169.2803 C.3     1  UNL1        0.0174
     26 C         142.7005  141.3915  170.2918 C.3     1  UNL1        0.0029
     27 C         142.4554  139.9808  169.8448 C.3     1  UNL1        0.0174
     28 C         142.5136  139.6354  168.3863 C.3     1  UNL1        0.0720
@<TRIPOS>BOND
     1    10    11    1
     2    11    12   ar
     3    12    13   ar
     4    13    14   ar
     5    14     1    1
     6     1     2   ar
     7     2     3   ar
     8     3     4   ar
     9     4     5   ar
    10     5     6   ar
    11     6    17    1
    12    17    18    1
    13    18    19    1
    14    19    20    1
    15    20    23    1
    16    23    24    1
    17    24    25    1
    18    25    26    1
    19    26    27    1
    20    27    28    1
    21    20    21    1
    22    21    22    1
    23     6     7   ar
    24     7     8   ar
    25     8     9   ar
    26    14    15   ar
    27    15    16   ar
    28    16    11   ar
    29     9     1   ar
    30     8     4   ar
    31    22    17    1
    32    28    23    1
@<TRIPOS>MOLECULE
*****
 28 32 0 0 0
SMALL
GASTEIGER

@<TRIPOS>ATOM
      1 C         139.9262  142.4682  160.6474 C.ar    1  UNL1        0.0213
      2 C         139.9992  143.1978  159.3389 C.ar    1  UNL1        0.1006
      3 N         140.3636  142.4572  158.0865 N.ar    1  UNL1       -0.2246
      4 C         140.6550  140.9868  158.1426 C.ar    1  UNL1        0.1702
      5 N         141.0377  139.9982  157.0813 N.ar    1  UNL1       -0.2052
      6 C         141.2013  138.6576  157.7339 C.ar    1  UNL1        0.1647
      7 S         140.9197  138.8176  159.1985 S.2     1  UNL1       -0.0499
      8 C         140.5821  140.2571  159.4511 C.ar    1  UNL1        0.0679
      9 C         140.2177  140.9978  160.7035 C.ar    1  UNL1        0.0112
     10 F         138.4684  145.4308  165.6572 F       1  UNL1       -0.1832
     11 C         138.8329  144.6901  164.4048 C.ar    1  UNL1        0.2223
     12 C         140.2399  144.7389  163.8872 C.ar    1  UNL1        0.0497
     13 C         140.6043  143.9982  162.6347 C.ar    1  UNL1        0.0055
     14 C         139.5618  143.2088  161.8999 C.ar    1  UNL1        0.0209
     15 C         138.1548  143.1601  162.4175 C.ar    1  UNL1        0.1013
     16 N         137.7903  143.9007  163.6699 N.ar    1  UNL1       -0.2165
     17 N         141.5800  137.3810  157.0432 N.pl3   1  UNL1       -0.2880
     18 C         140.7046  136.8271  155.9583 C.3     1  UNL1        0.0940
     19 C         141.0833  135.5506  155.2676 C.3     1  UNL1        0.0375
     20 C         142.3372  134.8280  155.6618 C.3     1  UNL1        0.0609
     21 C         143.2125  135.3819  156.7467 C.3     1  UNL1        0.0375
     22 C         142.8339  136.6584  157.4374 C.3     1  UNL1        0.0940
     23 N         142.7159  133.5514  154.9711 N.3     1  UNL1       -0.2738
     24 C         143.6505  132.5864  155.6384 C.3     1  UNL1        0.0720
     25 C         144.0292  131.3098  154.9477 C.3     1  UNL1        0.0174
     26 C         143.4732  130.9983  153.5899 C.3     1  UNL1        0.0029
     27 C         142.5386  131.9634  152.9226 C.3     1  UNL1        0.0174
     28 C         142.1600  133.2399  153.6132 C.3     1  UNL1        0.0720
@<TRIPOS>BOND
     1    10    11    1
     2    11    12   ar
     3    12    13   ar
     4    13    14   ar
     5    14     1    1
     6     1     2   ar
     7     2     3   ar
     8     3     4   ar
     9     4     5   ar
    10     5     6   ar
    11     6    17    1
    12    17    18    1
    13    18    19    1
    14    19    20    1
    15    20    23    1
    16    23    24    1
    17    24    25    1
    18    25    26    1
    19    26    27    1
    20    27    28    1
    21    20    21    1
    22    21    22    1
    23     6     7   ar
    24     7     8   ar
    25     8     9   ar
    26    14    15   ar
    27    15    16   ar
    28    16    11   ar
    29     9     1   ar
    30     8     4   ar
    31    22    17    1
    32    28    23    1
