@<TRIPOS>MOLECULE
*****
 39 42 0 0 0
SMALL
GASTEIGER

@<TRIPOS>ATOM
      1 C         142.9182  139.3520  158.6764 C.3     1  UNL1        0.1747
      2 N         141.7477  138.7383  160.9131 N.am    1  UNL1       -0.3018
      3 C         142.7269  139.5774  160.1470 C.2     1  UNL1        0.2425
      4 O         143.5148  140.6419  160.8513 O.2     1  UNL1       -0.2733
      5 H         141.2305  138.0397  160.4509 H       1  UNL1        0.1495
      6 N         141.2858  139.2825  164.4635 N.3     1  UNL1       -0.2711
      7 C         141.6337  138.1005  163.6081 C.3     1  UNL1        0.0933
      8 C         141.5564  138.9638  162.3837 C.3     1  UNL1        0.1035
      9 C         141.2085  140.1458  163.2392 C.3     1  UNL1        0.0933
     10 C         140.7119  139.9589  168.8752 C.3     1  UNL1        0.0992
     11 C         142.0908  139.7566  168.3206 C.3     1  UNL1        0.0125
     12 C         142.2821  139.5311  166.8500 C.3     1  UNL1        0.0165
     13 C         141.0945  139.5080  165.9340 C.3     1  UNL1        0.0576
     14 C         139.7156  139.7103  166.4886 C.3     1  UNL1        0.0165
     15 C         139.5243  139.9358  167.9591 C.3     1  UNL1        0.0125
     16 C         140.5205  140.1843  170.3457 C.2     1  UNL1        0.3164
     17 O         139.4200  139.4738  171.0765 O.2     1  UNL1       -0.2501
     18 O         141.4296  141.1205  171.0855 O.3     1  UNL1       -0.4485
     19 C         140.3232  143.2337  170.0559 C.3     1  UNL1        0.0513
     20 C         141.5096  142.5631  170.6826 C.3     1  UNL1        0.2086
     21 N         143.2042  137.9729  158.1600 N.pl3   1  UNL1       -0.3092
     22 H         143.9772  137.4692  158.5034 H       1  UNL1        0.1487
     23 C         142.3124  137.3614  157.1204 C.ar    1  UNL1        0.1518
     24 N         141.0994  138.0012  156.5125 N.ar    1  UNL1       -0.1338
     25 N         140.5144  137.0379  155.5226 N.ar    1  UNL1       -0.1301
     26 C         141.3657  135.8030  155.5187 C.ar    1  UNL1        0.1049
     27 C         141.2727  134.5222  154.7435 C.ar    1  UNL1        0.0207
     28 C         142.2908  133.4414  154.9558 C.ar    1  UNL1        0.0054
     29 C         143.4021  133.6413  155.9433 C.ar    1  UNL1        0.0716
     30 C         143.4951  134.9221  156.7185 C.ar    1  UNL1        0.0082
     31 C         142.4770  136.0029  156.5062 C.ar    1  UNL1        0.0523
     32 S         139.2925  137.2691  154.6838 S.O2    1  UNL1        0.0828
     33 C         138.0705  137.5003  153.8451 C.3     1  UNL1        0.2042
     34 O         140.1605  137.6900  153.5353 O.2     1  UNL1       -0.1508
     35 O         138.4244  136.8482  155.8325 O.2     1  UNL1       -0.1508
     36 C         144.4203  132.5604  156.1556 C.3     1  UNL1        0.4186
     37 F         145.4384  131.4796  156.3679 F       1  UNL1       -0.1659
     38 F         144.0625  131.9624  154.8273 F       1  UNL1       -0.1659
     39 F         144.7781  133.1584  157.4839 F       1  UNL1       -0.1659
@<TRIPOS>BOND
     1    19    20    1
     2    20    18    1
     3    18    16    1
     4    16    17    2
     5    10    16    1
     6    10    11    1
     7    11    12    1
     8    12    13    1
     9    13     6    1
    10     6     7    1
    11     7     8    1
    12     8     2    1
    13     2     3   am
    14     3     4    2
    15     3     1    1
    16     1    21    1
    17    21    23    1
    18    23    24   ar
    19    24    25   ar
    20    25    32    1
    21    32    33    1
    22    32    34    2
    23    32    35    2
    24    25    26   ar
    25    26    27   ar
    26    27    28   ar
    27    28    29   ar
    28    29    36    1
    29    36    37    1
    30    36    38    1
    31    36    39    1
    32    29    30   ar
    33    30    31   ar
    34     8     9    1
    35    13    14    1
    36    14    15    1
    37    15    10    1
    38     9     6    1
    39    31    23   ar
    40    31    26   ar
    41     2     5    1
    42    21    22    1
@<TRIPOS>MOLECULE
*****
 39 42 0 0 0
SMALL
GASTEIGER

@<TRIPOS>ATOM
      1 C         143.0395  137.1522  159.6595 C.3     1  UNL1        0.1747
      2 N         141.6854  137.8976  161.7476 N.am    1  UNL1       -0.3018
      3 C         142.9308  137.9664  160.9146 C.2     1  UNL1        0.2425
      4 O         144.0677  138.8493  161.3366 O.2     1  UNL1       -0.2733
      5 H         140.9392  137.3182  161.4706 H       1  UNL1        0.1495
      6 N         141.4231  139.8632  164.7778 N.3     1  UNL1       -0.2711
      7 C         141.7196  138.4257  164.4683 C.3     1  UNL1        0.0933
      8 C         141.5767  138.7118  163.0028 C.3     1  UNL1        0.1035
      9 C         141.2803  140.1492  163.3123 C.3     1  UNL1        0.0933
     10 C         141.0973  142.3057  168.5432 C.3     1  UNL1        0.0992
     11 C         139.9465  141.4509  168.1018 C.3     1  UNL1        0.0125
     12 C         140.0551  140.6367  166.8467 C.3     1  UNL1        0.0165
     13 C         141.3145  140.6773  166.0330 C.3     1  UNL1        0.0576
     14 C         142.4653  141.5322  166.4743 C.3     1  UNL1        0.0165
     15 C         142.3568  142.3463  167.7294 C.3     1  UNL1        0.0125
     16 C         140.9888  143.1199  169.7982 C.2     1  UNL1        0.3164
     17 O         140.1197  144.3421  169.8267 O.2     1  UNL1       -0.2501
     18 O         141.7495  142.7119  171.0250 O.3     1  UNL1       -0.4485
     19 C         142.7112  140.3175  170.7214 C.3     1  UNL1        0.0513
     20 C         141.7962  141.2693  171.4334 C.3     1  UNL1        0.2086
     21 N         143.0140  137.8298  158.3214 N.pl3   1  UNL1       -0.3092
     22 H         143.5554  138.6377  158.1683 H       1  UNL1        0.1487
     23 C         142.1636  137.2764  157.2166 C.ar    1  UNL1        0.1518
     24 N         140.9621  137.9402  156.6119 N.ar    1  UNL1       -0.1338
     25 N         140.4214  137.0361  155.5441 N.ar    1  UNL1       -0.1301
     26 C         141.2888  135.8135  155.4888 C.ar    1  UNL1        0.1049
     27 C         141.2372  134.5843  154.6308 C.ar    1  UNL1        0.0207
     28 C         142.2624  133.5035  154.8065 C.ar    1  UNL1        0.0054
     29 C         143.3392  133.6521  155.8401 C.ar    1  UNL1        0.0716
     30 C         143.3908  134.8813  156.6981 C.ar    1  UNL1        0.0082
     31 C         142.3655  135.9621  156.5225 C.ar    1  UNL1        0.0523
     32 S         139.2236  137.3069  154.6827 S.O2    1  UNL1        0.0828
     33 C         138.0258  137.5778  153.8213 C.3     1  UNL1        0.2042
     34 O         138.3208  136.9252  155.8181 O.2     1  UNL1       -0.1508
     35 O         140.1264  137.6886  153.5473 O.2     1  UNL1       -0.1508
     36 C         144.3645  132.5713  156.0158 C.3     1  UNL1        0.4186
     37 F         145.3897  131.4905  156.1914 F       1  UNL1       -0.1659
     38 F         143.9551  131.9697  154.7041 F       1  UNL1       -0.1659
     39 F         144.7739  133.1729  157.3274 F       1  UNL1       -0.1659
@<TRIPOS>BOND
     1    19    20    1
     2    20    18    1
     3    18    16    1
     4    16    17    2
     5    10    16    1
     6    10    11    1
     7    11    12    1
     8    12    13    1
     9    13     6    1
    10     6     7    1
    11     7     8    1
    12     8     2    1
    13     2     3   am
    14     3     4    2
    15     3     1    1
    16     1    21    1
    17    21    23    1
    18    23    24   ar
    19    24    25   ar
    20    25    32    1
    21    32    33    1
    22    32    34    2
    23    32    35    2
    24    25    26   ar
    25    26    27   ar
    26    27    28   ar
    27    28    29   ar
    28    29    36    1
    29    36    37    1
    30    36    38    1
    31    36    39    1
    32    29    30   ar
    33    30    31   ar
    34     8     9    1
    35    13    14    1
    36    14    15    1
    37    15    10    1
    38     9     6    1
    39    31    23   ar
    40    31    26   ar
    41     2     5    1
    42    21    22    1
@<TRIPOS>MOLECULE
*****
 39 42 0 0 0
SMALL
GASTEIGER

@<TRIPOS>ATOM
      1 C         143.4299  139.8152  157.4412 C.3     1  UNL1        0.1747
      2 N         143.7197  138.8971  159.8542 N.am    1  UNL1       -0.3018
      3 C         143.2356  139.9668  158.9208 C.2     1  UNL1        0.2425
      4 O         142.5572  141.1881  159.4669 O.2     1  UNL1       -0.2733
      5 H         144.1649  138.0956  159.4958 H       1  UNL1        0.1495
      6 N         143.2505  139.2632  163.4264 N.3     1  UNL1       -0.2711
      7 C         142.3821  138.8342  162.2810 C.3     1  UNL1        0.0933
      8 C         143.5254  139.0488  161.3339 C.3     1  UNL1        0.1035
      9 C         144.3937  139.4777  162.4792 C.3     1  UNL1        0.0933
     10 C         142.6677  139.7181  167.8652 C.3     1  UNL1        0.0992
     11 C         142.1900  140.7910  166.9322 C.3     1  UNL1        0.0125
     12 C         142.3843  140.6394  165.4526 C.3     1  UNL1        0.0165
     13 C         143.0563  139.4148  164.9060 C.3     1  UNL1        0.0576
     14 C         143.5340  138.3418  165.8390 C.3     1  UNL1        0.0165
     15 C         143.3397  138.4934  167.3185 C.3     1  UNL1        0.0125
     16 C         142.4735  139.8696  169.3448 C.2     1  UNL1        0.3164
     17 O         142.9702  138.8066  170.2793 O.2     1  UNL1       -0.2501
     18 O         141.7825  141.0843  169.8900 O.3     1  UNL1       -0.4485
     19 C         139.3062  140.4164  169.4754 C.3     1  UNL1        0.0513
     20 C         140.3649  140.9883  170.3710 C.3     1  UNL1        0.2086
     21 N         143.7263  138.4652  156.8581 N.pl3   1  UNL1       -0.3092
     22 H         144.6382  138.0975  156.9067 H       1  UNL1        0.1487
     23 C         142.6332  137.6757  156.2010 C.ar    1  UNL1        0.1518
     24 N         141.3385  138.2261  155.6807 N.ar    1  UNL1       -0.1338
     25 N         140.5481  137.0876  155.1070 N.ar    1  UNL1       -0.1301
     26 C         141.3542  135.8336  155.2729 C.ar    1  UNL1        0.1049
     27 C         141.0813  134.4077  154.8955 C.ar    1  UNL1        0.0207
     28 C         142.0971  133.3453  155.1944 C.ar    1  UNL1        0.0054
     29 C         143.3858  133.7087  155.8705 C.ar    1  UNL1        0.0716
     30 C         143.6587  135.1346  156.2479 C.ar    1  UNL1        0.0082
     31 C         142.6429  136.1970  155.9490 C.ar    1  UNL1        0.0523
     32 S         139.1899  137.1859  154.4779 S.O2    1  UNL1        0.0828
     33 C         137.8316  137.2842  153.8489 C.3     1  UNL1        0.2042
     34 O         139.8265  137.4143  153.1392 O.2     1  UNL1       -0.1508
     35 O         138.5532  136.9576  155.8168 O.2     1  UNL1       -0.1508
     36 C         144.4016  132.6462  156.1694 C.3     1  UNL1        0.4186
     37 F         145.4174  131.5838  156.4683 F       1  UNL1       -0.1659
     38 F         144.1050  131.9922  154.8525 F       1  UNL1       -0.1659
     39 F         144.6982  133.3002  157.4863 F       1  UNL1       -0.1659
@<TRIPOS>BOND
     1    19    20    1
     2    20    18    1
     3    18    16    1
     4    16    17    2
     5    10    16    1
     6    10    11    1
     7    11    12    1
     8    12    13    1
     9    13     6    1
    10     6     7    1
    11     7     8    1
    12     8     2    1
    13     2     3   am
    14     3     4    2
    15     3     1    1
    16     1    21    1
    17    21    23    1
    18    23    24   ar
    19    24    25   ar
    20    25    32    1
    21    32    33    1
    22    32    34    2
    23    32    35    2
    24    25    26   ar
    25    26    27   ar
    26    27    28   ar
    27    28    29   ar
    28    29    36    1
    29    36    37    1
    30    36    38    1
    31    36    39    1
    32    29    30   ar
    33    30    31   ar
    34     8     9    1
    35    13    14    1
    36    14    15    1
    37    15    10    1
    38     9     6    1
    39    31    23   ar
    40    31    26   ar
    41     2     5    1
    42    21    22    1
@<TRIPOS>MOLECULE
*****
 39 42 0 0 0
SMALL
GASTEIGER

@<TRIPOS>ATOM
      1 C         137.9864  140.7491  159.6684 C.3     1  UNL1        0.1747
      2 N         139.5811  141.8165  161.4198 N.am    1  UNL1       -0.3018
      3 C         138.4219  140.9223  161.0933 C.2     1  UNL1        0.2425
      4 O         137.6982  140.2012  162.1917 O.2     1  UNL1       -0.2733
      5 H         140.0561  142.2897  160.6989 H       1  UNL1        0.1495
      6 N         140.6326  142.2345  164.8598 N.3     1  UNL1       -0.2711
      7 C         140.7716  141.1504  163.8325 C.3     1  UNL1        0.0933
      8 C         140.0166  141.9897  162.8447 C.3     1  UNL1        0.1035
      9 C         139.8776  143.0737  163.8720 C.3     1  UNL1        0.0933
     10 C         141.9391  142.7540  169.1346 C.3     1  UNL1        0.0992
     11 C         142.8899  142.1850  168.1236 C.3     1  UNL1        0.0125
     12 C         142.4544  142.0118  166.6987 C.3     1  UNL1        0.0165
     13 C         141.0681  142.4076  166.2847 C.3     1  UNL1        0.0576
     14 C         140.1172  142.9766  167.2957 C.3     1  UNL1        0.0165
     15 C         140.5527  143.1498  168.7206 C.3     1  UNL1        0.0125
     16 C         142.3745  142.9272  170.5594 C.2     1  UNL1        0.3164
     17 O         143.3620  143.9980  170.9171 O.2     1  UNL1       -0.2501
     18 O         141.8222  142.0295  171.6268 O.3     1  UNL1       -0.4485
     19 C         140.2125  140.1513  170.8321 C.3     1  UNL1        0.0513
     20 C         141.5605  140.5828  171.3288 C.3     1  UNL1        0.2086
     21 N         138.6349  139.7059  158.8074 N.pl3   1  UNL1       -0.3092
     22 H         138.0791  139.0911  158.2760 H       1  UNL1        0.1487
     23 C         140.1303  139.5993  158.7562 C.ar    1  UNL1        0.1518
     24 N         141.0059  140.0247  157.6150 N.ar    1  UNL1       -0.1338
     25 N         142.4293  139.7369  157.9907 N.ar    1  UNL1       -0.1301
     26 C         142.4334  139.1337  159.3641 C.ar    1  UNL1        0.1049
     27 C         143.5473  138.6509  160.2449 C.ar    1  UNL1        0.0207
     28 C         143.2403  138.0830  161.5989 C.ar    1  UNL1        0.0054
     29 C         141.8195  137.9979  162.0720 C.ar    1  UNL1        0.0716
     30 C         140.7055  138.4808  161.1911 C.ar    1  UNL1        0.0082
     31 C         141.0125  139.0486  159.8372 C.ar    1  UNL1        0.0523
     32 S         143.6367  140.0052  157.1420 S.O2    1  UNL1        0.0828
     33 C         144.8441  140.2735  156.2933 C.3     1  UNL1        0.2042
     34 O         143.6161  141.4434  157.5675 O.2     1  UNL1       -0.1508
     35 O         143.6573  138.5670  156.7166 O.2     1  UNL1       -0.1508
     36 C         141.5125  137.4300  163.4260 C.3     1  UNL1        0.4186
     37 F         141.2056  136.8621  164.7800 F       1  UNL1       -0.1659
     38 F         142.8406  137.9123  163.9294 F       1  UNL1       -0.1659
     39 F         140.1844  136.9477  162.9226 F       1  UNL1       -0.1659
@<TRIPOS>BOND
     1    19    20    1
     2    20    18    1
     3    18    16    1
     4    16    17    2
     5    10    16    1
     6    10    11    1
     7    11    12    1
     8    12    13    1
     9    13     6    1
    10     6     7    1
    11     7     8    1
    12     8     2    1
    13     2     3   am
    14     3     4    2
    15     3     1    1
    16     1    21    1
    17    21    23    1
    18    23    24   ar
    19    24    25   ar
    20    25    32    1
    21    32    33    1
    22    32    34    2
    23    32    35    2
    24    25    26   ar
    25    26    27   ar
    26    27    28   ar
    27    28    29   ar
    28    29    36    1
    29    36    37    1
    30    36    38    1
    31    36    39    1
    32    29    30   ar
    33    30    31   ar
    34     8     9    1
    35    13    14    1
    36    14    15    1
    37    15    10    1
    38     9     6    1
    39    31    23   ar
    40    31    26   ar
    41     2     5    1
    42    21    22    1
@<TRIPOS>MOLECULE
*****
 39 42 0 0 0
SMALL
GASTEIGER

@<TRIPOS>ATOM
      1 C         137.9632  143.4964  162.9497 C.3     1  UNL1        0.1747
      2 N         139.2028  141.3570  162.1524 N.am    1  UNL1       -0.3018
      3 C         138.4397  142.6094  161.8379 C.2     1  UNL1        0.2425
      4 O         138.1530  142.9748  160.4116 O.2     1  UNL1       -0.2733
      5 H         139.3909  141.1171  163.0885 H       1  UNL1        0.1495
      6 N         140.3532  139.2155  159.4682 N.3     1  UNL1       -0.2711
      7 C         140.6199  140.6320  159.8833 C.3     1  UNL1        0.0933
      8 C         139.6793  140.4699  161.0406 C.3     1  UNL1        0.1035
      9 C         139.4126  139.0535  160.6253 C.3     1  UNL1        0.0933
     10 C         141.7827  136.5545  156.1327 C.3     1  UNL1        0.0992
     11 C         140.3542  137.0107  156.1683 C.3     1  UNL1        0.0125
     12 C         139.8777  137.8977  157.2802 C.3     1  UNL1        0.0165
     13 C         140.8297  138.3285  158.3563 C.3     1  UNL1        0.0576
     14 C         142.2582  137.8723  158.3207 C.3     1  UNL1        0.0165
     15 C         142.7347  136.9853  157.2089 C.3     1  UNL1        0.0125
     16 C         142.2593  135.6675  155.0210 C.2     1  UNL1        0.3164
     17 O         142.1057  136.1046  153.5943 O.2     1  UNL1       -0.2501
     18 O         142.8896  134.3432  155.3359 O.3     1  UNL1       -0.4485
     19 C         142.6814  131.9791  156.3931 C.3     1  UNL1        0.0513
     20 C         142.0389  133.2002  155.8048 C.3     1  UNL1        0.2086
     21 N         138.9526  144.2799  163.7606 N.pl3   1  UNL1       -0.3092
     22 H         138.7211  145.1808  164.0832 H       1  UNL1        0.1487
     23 C         140.2945  143.6906  164.0799 C.ar    1  UNL1        0.1518
     24 N         141.4157  143.4727  163.1075 N.ar    1  UNL1       -0.1338
     25 N         142.5650  142.8632  163.8544 N.ar    1  UNL1       -0.1301
     26 C         142.1541  142.7046  165.2882 C.ar    1  UNL1        0.1049
     27 C         142.8765  142.1606  166.4850 C.ar    1  UNL1        0.0207
     28 C         142.1955  142.1279  167.8211 C.ar    1  UNL1        0.0054
     29 C         140.7923  142.6393  167.9605 C.ar    1  UNL1        0.0716
     30 C         140.0700  143.1833  166.7637 C.ar    1  UNL1        0.0082
     31 C         140.7509  143.2160  165.4276 C.ar    1  UNL1        0.0523
     32 S         143.8922  142.4798  163.2699 S.O2    1  UNL1        0.0828
     33 C         145.2193  142.0962  162.6854 C.3     1  UNL1        0.2042
     34 O         144.4671  143.7917  163.7148 O.2     1  UNL1       -0.1508
     35 O         143.3172  141.1677  162.8250 O.2     1  UNL1       -0.1508
     36 C         140.1114  142.6066  169.2967 C.3     1  UNL1        0.4186
     37 F         139.4306  142.5740  170.6328 F       1  UNL1       -0.1659
     38 F         139.7142  141.1798  169.0594 F       1  UNL1       -0.1659
     39 F         140.5086  144.0334  169.5340 F       1  UNL1       -0.1659
@<TRIPOS>BOND
     1    19    20    1
     2    20    18    1
     3    18    16    1
     4    16    17    2
     5    10    16    1
     6    10    11    1
     7    11    12    1
     8    12    13    1
     9    13     6    1
    10     6     7    1
    11     7     8    1
    12     8     2    1
    13     2     3   am
    14     3     4    2
    15     3     1    1
    16     1    21    1
    17    21    23    1
    18    23    24   ar
    19    24    25   ar
    20    25    32    1
    21    32    33    1
    22    32    34    2
    23    32    35    2
    24    25    26   ar
    25    26    27   ar
    26    27    28   ar
    27    28    29   ar
    28    29    36    1
    29    36    37    1
    30    36    38    1
    31    36    39    1
    32    29    30   ar
    33    30    31   ar
    34     8     9    1
    35    13    14    1
    36    14    15    1
    37    15    10    1
    38     9     6    1
    39    31    23   ar
    40    31    26   ar
    41     2     5    1
    42    21    22    1
@<TRIPOS>MOLECULE
*****
 39 42 0 0 0
SMALL
GASTEIGER

@<TRIPOS>ATOM
      1 C         144.6181  139.6806  164.5573 C.3     1  UNL1        0.1747
      2 N         143.7608  141.7463  163.2354 N.am    1  UNL1       -0.3018
      3 C         143.9240  140.2605  163.3607 C.2     1  UNL1        0.2425
      4 O         143.3931  139.3546  162.2895 O.2     1  UNL1       -0.2733
      5 H         144.1092  142.3408  163.9385 H       1  UNL1        0.1495
      6 N         142.0849  143.1463  160.3465 N.3     1  UNL1       -0.2711
      7 C         141.6403  142.4267  161.5853 C.3     1  UNL1        0.0933
      8 C         143.0667  142.3262  162.0388 C.3     1  UNL1        0.1035
      9 C         143.5112  143.0457  160.8000 C.3     1  UNL1        0.0933
     10 C         140.0026  144.8860  156.7566 C.3     1  UNL1        0.0992
     11 C         140.4444  143.4526  156.7458 C.3     1  UNL1        0.0125
     12 C         141.1385  142.8727  157.9425 C.3     1  UNL1        0.0165
     13 C         141.3908  143.7262  159.1499 C.3     1  UNL1        0.0576
     14 C         140.9490  145.1596  159.1607 C.3     1  UNL1        0.0165
     15 C         140.2550  145.7395  157.9641 C.3     1  UNL1        0.0125
     16 C         139.3085  145.4660  155.5601 C.2     1  UNL1        0.3164
     17 O         137.8322  145.2699  155.3811 O.2     1  UNL1       -0.2501
     18 O         140.0907  146.2423  154.5424 O.3     1  UNL1       -0.4485
     19 C         139.0256  148.4774  155.3299 C.3     1  UNL1        0.0513
     20 C         140.1031  147.7415  154.5899 C.3     1  UNL1        0.2086
     21 N         143.8790  138.7547  165.4776 N.pl3   1  UNL1       -0.3092
     22 H         144.1677  137.8180  165.5694 H       1  UNL1        0.1487
     23 C         142.7002  139.2562  166.2579 C.ar    1  UNL1        0.1518
     24 N         142.7430  139.8553  167.6323 N.ar    1  UNL1       -0.1338
     25 N         141.3408  140.2160  168.0246 N.ar    1  UNL1       -0.1301
     26 C         140.4314  139.8397  166.8925 C.ar    1  UNL1        0.1049
     27 C         138.9469  139.9607  166.7149 C.ar    1  UNL1        0.0207
     28 C         138.3026  139.4884  165.4454 C.ar    1  UNL1        0.0054
     29 C         139.1427  138.8952  164.3535 C.ar    1  UNL1        0.0716
     30 C         140.6272  138.7743  164.5311 C.ar    1  UNL1        0.0082
     31 C         141.2716  139.2466  165.8006 C.ar    1  UNL1        0.0523
     32 S         140.9216  140.8428  169.3212 S.O2    1  UNL1        0.0828
     33 C         140.5023  141.4696  170.6180 C.3     1  UNL1        0.2042
     34 O         141.1943  142.2033  168.7518 O.2     1  UNL1       -0.1508
     35 O         140.6488  139.4822  169.8908 O.2     1  UNL1       -0.1508
     36 C         138.4983  138.4229  163.0839 C.3     1  UNL1        0.4186
     37 F         137.8539  137.9507  161.8144 F       1  UNL1       -0.1659
     38 F         139.3101  137.1629  163.1406 F       1  UNL1       -0.1659
     39 F         137.6866  139.6830  163.0273 F       1  UNL1       -0.1659
@<TRIPOS>BOND
     1    19    20    1
     2    20    18    1
     3    18    16    1
     4    16    17    2
     5    10    16    1
     6    10    11    1
     7    11    12    1
     8    12    13    1
     9    13     6    1
    10     6     7    1
    11     7     8    1
    12     8     2    1
    13     2     3   am
    14     3     4    2
    15     3     1    1
    16     1    21    1
    17    21    23    1
    18    23    24   ar
    19    24    25   ar
    20    25    32    1
    21    32    33    1
    22    32    34    2
    23    32    35    2
    24    25    26   ar
    25    26    27   ar
    26    27    28   ar
    27    28    29   ar
    28    29    36    1
    29    36    37    1
    30    36    38    1
    31    36    39    1
    32    29    30   ar
    33    30    31   ar
    34     8     9    1
    35    13    14    1
    36    14    15    1
    37    15    10    1
    38     9     6    1
    39    31    23   ar
    40    31    26   ar
    41     2     5    1
    42    21    22    1
@<TRIPOS>MOLECULE
*****
 39 42 0 0 0
SMALL
GASTEIGER

@<TRIPOS>ATOM
      1 C         138.6747  140.0088  157.7353 C.3     1  UNL1        0.1747
      2 N         139.8325  140.3508  160.0357 N.am    1  UNL1       -0.3018
      3 C         138.6143  140.0001  159.2340 C.2     1  UNL1        0.2425
      4 O         137.3356  139.6407  159.9310 O.2     1  UNL1       -0.2733
      5 H         140.6718  140.5867  159.5782 H       1  UNL1        0.1495
      6 N         139.6868  140.3297  163.6541 N.3     1  UNL1       -0.2711
      7 C         140.3963  139.5113  162.6164 C.3     1  UNL1        0.0933
      8 C         139.7721  140.3421  161.5345 C.3     1  UNL1        0.1035
      9 C         139.0627  141.1604  162.5722 C.3     1  UNL1        0.0933
     10 C         139.5055  140.3036  168.1504 C.3     1  UNL1        0.0992
     11 C         140.3596  141.3116  167.4400 C.3     1  UNL1        0.0125
     12 C         140.4200  141.3203  165.9413 C.3     1  UNL1        0.0165
     13 C         139.6264  140.3210  165.1528 C.3     1  UNL1        0.0576
     14 C         138.7723  139.3131  165.8632 C.3     1  UNL1        0.0165
     15 C         138.7119  139.3043  167.3618 C.3     1  UNL1        0.0125
     16 C         139.4450  140.2948  169.6491 C.2     1  UNL1        0.3164
     17 O         138.4245  141.1303  170.3635 O.2     1  UNL1       -0.2501
     18 O         140.4052  139.4504  170.4335 O.3     1  UNL1       -0.4485
     19 C         142.7420  138.9697  169.4048 C.3     1  UNL1        0.0513
     20 C         141.8775  139.7297  170.3664 C.3     1  UNL1        0.2086
     21 N         139.2482  138.8332  157.0009 N.pl3   1  UNL1       -0.3092
     22 H         138.6604  138.0971  156.7147 H       1  UNL1        0.1487
     23 C         140.7173  138.7793  156.7026 C.ar    1  UNL1        0.1518
     24 N         141.6753  139.9309  156.7789 N.ar    1  UNL1       -0.1338
     25 N         143.0363  139.4276  156.3991 N.ar    1  UNL1       -0.1301
     26 C         142.9194  137.9648  156.0881 C.ar    1  UNL1        0.1049
     27 C         143.9329  136.9459  155.6583 C.ar    1  UNL1        0.0207
     28 C         143.5131  135.5264  155.4162 C.ar    1  UNL1        0.0054
     29 C         142.0799  135.1258  155.6038 C.ar    1  UNL1        0.0716
     30 C         141.0664  136.1446  156.0336 C.ar    1  UNL1        0.0082
     31 C         141.4862  137.5641  156.2757 C.ar    1  UNL1        0.0523
     32 S         144.2935  140.2436  156.3405 S.O2    1  UNL1        0.0828
     33 C         145.5508  141.0598  156.2819 C.3     1  UNL1        0.2042
     34 O         144.5524  139.9487  157.7882 O.2     1  UNL1       -0.1508
     35 O         144.0346  140.5386  154.8928 O.2     1  UNL1       -0.1508
     36 C         141.6601  133.7061  155.3616 C.3     1  UNL1        0.4186
     37 F         141.2404  132.2866  155.1195 F       1  UNL1       -0.1659
     38 F         141.0009  134.1198  154.0793 F       1  UNL1       -0.1659
     39 F         142.3193  133.2925  156.6439 F       1  UNL1       -0.1659
@<TRIPOS>BOND
     1    19    20    1
     2    20    18    1
     3    18    16    1
     4    16    17    2
     5    10    16    1
     6    10    11    1
     7    11    12    1
     8    12    13    1
     9    13     6    1
    10     6     7    1
    11     7     8    1
    12     8     2    1
    13     2     3   am
    14     3     4    2
    15     3     1    1
    16     1    21    1
    17    21    23    1
    18    23    24   ar
    19    24    25   ar
    20    25    32    1
    21    32    33    1
    22    32    34    2
    23    32    35    2
    24    25    26   ar
    25    26    27   ar
    26    27    28   ar
    27    28    29   ar
    28    29    36    1
    29    36    37    1
    30    36    38    1
    31    36    39    1
    32    29    30   ar
    33    30    31   ar
    34     8     9    1
    35    13    14    1
    36    14    15    1
    37    15    10    1
    38     9     6    1
    39    31    23   ar
    40    31    26   ar
    41     2     5    1
    42    21    22    1
@<TRIPOS>MOLECULE
*****
 39 42 0 0 0
SMALL
GASTEIGER

@<TRIPOS>ATOM
      1 C         138.0824  139.3964  164.9991 C.3     1  UNL1        0.1747
      2 N         139.0086  140.0378  162.6580 N.am    1  UNL1       -0.3018
      3 C         138.2609  140.4069  163.9049 C.2     1  UNL1        0.2425
      4 O         137.6918  141.7863  164.0577 O.2     1  UNL1       -0.2733
      5 H         139.3821  139.1325  162.5578 H       1  UNL1        0.1495
      6 N         139.4394  142.4772  160.0165 N.3     1  UNL1       -0.2711
      7 C         138.3206  142.1040  160.9434 C.3     1  UNL1        0.0933
      8 C         139.1870  141.0482  161.5639 C.3     1  UNL1        0.1035
      9 C         140.3057  141.4216  160.6370 C.3     1  UNL1        0.0933
     10 C         139.9749  145.5085  156.7340 C.3     1  UNL1        0.0992
     11 C         140.4670  145.8079  158.1189 C.3     1  UNL1        0.0125
     12 C         140.2885  144.7975  159.2131 C.3     1  UNL1        0.0165
     13 C         139.6179  143.4877  158.9223 C.3     1  UNL1        0.0576
     14 C         139.1257  143.1883  157.5373 C.3     1  UNL1        0.0165
     15 C         139.3042  144.1986  156.4432 C.3     1  UNL1        0.0125
     16 C         140.1533  146.5188  155.6398 C.2     1  UNL1        0.3164
     17 O         141.1239  146.2556  154.5268 O.2     1  UNL1       -0.2501
     18 O         139.3611  147.7925  155.6585 O.3     1  UNL1       -0.4485
     19 C         139.1225  150.2340  154.8030 C.3     1  UNL1        0.0513
     20 C         139.5631  148.8174  154.5820 C.3     1  UNL1        0.2086
     21 N         139.2830  138.7830  165.6567 N.pl3   1  UNL1       -0.3092
     22 H         139.2248  137.8793  166.0430 H       1  UNL1        0.1487
     23 C         140.5723  139.5466  165.7258 C.ar    1  UNL1        0.1518
     24 N         141.7237  139.4207  164.7727 N.ar    1  UNL1       -0.1338
     25 N         142.7995  140.3664  165.2180 N.ar    1  UNL1       -0.1301
     26 C         142.3131  141.0766  166.4464 C.ar    1  UNL1        0.1049
     27 C         142.9457  142.1193  167.3197 C.ar    1  UNL1        0.0207
     28 C         142.2018  142.6552  168.5068 C.ar    1  UNL1        0.0054
     29 C         140.8253  142.1486  168.8206 C.ar    1  UNL1        0.0716
     30 C         140.1927  141.1059  167.9473 C.ar    1  UNL1        0.0082
     31 C         140.9366  140.5700  166.7602 C.ar    1  UNL1        0.0523
     32 S         144.1285  140.5666  164.5519 S.O2    1  UNL1        0.0828
     33 C         145.4575  140.7670  163.8858 C.3     1  UNL1        0.2042
     34 O         144.5927  139.2415  165.0795 O.2     1  UNL1       -0.1508
     35 O         143.6644  141.8918  164.0243 O.2     1  UNL1       -0.1508
     36 C         140.0813  142.6846  170.0078 C.3     1  UNL1        0.4186
     37 F         139.3375  143.2206  171.1949 F       1  UNL1       -0.1659
     38 F         139.2336  141.4474  170.0353 F       1  UNL1       -0.1659
     39 F         140.9291  143.9217  169.9804 F       1  UNL1       -0.1659
@<TRIPOS>BOND
     1    19    20    1
     2    20    18    1
     3    18    16    1
     4    16    17    2
     5    10    16    1
     6    10    11    1
     7    11    12    1
     8    12    13    1
     9    13     6    1
    10     6     7    1
    11     7     8    1
    12     8     2    1
    13     2     3   am
    14     3     4    2
    15     3     1    1
    16     1    21    1
    17    21    23    1
    18    23    24   ar
    19    24    25   ar
    20    25    32    1
    21    32    33    1
    22    32    34    2
    23    32    35    2
    24    25    26   ar
    25    26    27   ar
    26    27    28   ar
    27    28    29   ar
    28    29    36    1
    29    36    37    1
    30    36    38    1
    31    36    39    1
    32    29    30   ar
    33    30    31   ar
    34     8     9    1
    35    13    14    1
    36    14    15    1
    37    15    10    1
    38     9     6    1
    39    31    23   ar
    40    31    26   ar
    41     2     5    1
    42    21    22    1
@<TRIPOS>MOLECULE
*****
 39 42 0 0 0
SMALL
GASTEIGER

@<TRIPOS>ATOM
      1 C         145.2367  141.9124  163.0928 C.3     1  UNL1        0.1747
      2 N         144.4844  139.8371  161.7230 N.am    1  UNL1       -0.3018
      3 C         144.6451  141.3233  161.8467 C.2     1  UNL1        0.2425
      4 O         144.2142  142.2203  160.7244 O.2     1  UNL1       -0.2733
      5 H         144.7672  139.2484  162.4596 H       1  UNL1        0.1495
      6 N         143.0560  138.4149  158.7144 N.3     1  UNL1       -0.2711
      7 C         143.7170  139.7156  159.0624 C.3     1  UNL1        0.0933
      8 C         143.8927  139.2480  160.4768 C.3     1  UNL1        0.1035
      9 C         143.2318  137.9472  160.1288 C.3     1  UNL1        0.0933
     10 C         141.2810  136.6474  154.9760 C.3     1  UNL1        0.0992
     11 C         140.3833  137.1751  156.0556 C.3     1  UNL1        0.0125
     12 C         140.9749  137.7642  157.3018 C.3     1  UNL1        0.0165
     13 C         142.4644  137.8257  157.4683 C.3     1  UNL1        0.0576
     14 C         143.3622  137.2981  156.3887 C.3     1  UNL1        0.0165
     15 C         142.7706  136.7089  155.1426 C.3     1  UNL1        0.0125
     16 C         140.6895  136.0583  153.7299 C.2     1  UNL1        0.3164
     17 O         140.8735  134.6003  153.4290 O.2     1  UNL1       -0.2501
     18 O         139.9139  136.9271  152.7845 O.3     1  UNL1       -0.4485
     19 C         137.5492  137.5218  153.6813 C.3     1  UNL1        0.0513
     20 C         138.4219  136.7977  152.6995 C.3     1  UNL1        0.2086
     21 N         144.6296  143.1410  163.7031 N.pl3   1  UNL1       -0.3092
     22 H         145.1844  143.9395  163.8574 H       1  UNL1        0.1487
     23 C         143.1774  143.1527  164.0783 C.ar    1  UNL1        0.1518
     24 N         142.0416  143.5738  163.1936 N.ar    1  UNL1       -0.1338
     25 N         140.7682  143.4267  163.9726 N.ar    1  UNL1       -0.1301
     26 C         141.1170  142.9148  165.3387 C.ar    1  UNL1        0.1049
     27 C         140.2711  142.5809  166.5316 C.ar    1  UNL1        0.0207
     28 C         140.9143  142.0778  167.7898 C.ar    1  UNL1        0.0054
     29 C         142.4033  141.9084  167.8552 C.ar    1  UNL1        0.0716
     30 C         143.2491  142.2422  166.6623 C.ar    1  UNL1        0.0082
     31 C         142.6060  142.7454  165.4040 C.ar    1  UNL1        0.0523
     32 S         139.3882  143.7371  163.4732 S.O2    1  UNL1        0.0828
     33 C         138.0083  144.0476  162.9738 C.3     1  UNL1        0.2042
     34 O         139.1917  142.2930  163.1187 O.2     1  UNL1       -0.1508
     35 O         139.5848  145.1813  163.8277 O.2     1  UNL1       -0.1508
     36 C         143.0464  141.4052  169.1135 C.3     1  UNL1        0.4186
     37 F         143.6895  140.9020  170.3717 F       1  UNL1       -0.1659
     38 F         143.9843  142.5757  169.1022 F       1  UNL1       -0.1659
     39 F         142.1085  140.2347  169.1247 F       1  UNL1       -0.1659
@<TRIPOS>BOND
     1    19    20    1
     2    20    18    1
     3    18    16    1
     4    16    17    2
     5    10    16    1
     6    10    11    1
     7    11    12    1
     8    12    13    1
     9    13     6    1
    10     6     7    1
    11     7     8    1
    12     8     2    1
    13     2     3   am
    14     3     4    2
    15     3     1    1
    16     1    21    1
    17    21    23    1
    18    23    24   ar
    19    24    25   ar
    20    25    32    1
    21    32    33    1
    22    32    34    2
    23    32    35    2
    24    25    26   ar
    25    26    27   ar
    26    27    28   ar
    27    28    29   ar
    28    29    36    1
    29    36    37    1
    30    36    38    1
    31    36    39    1
    32    29    30   ar
    33    30    31   ar
    34     8     9    1
    35    13    14    1
    36    14    15    1
    37    15    10    1
    38     9     6    1
    39    31    23   ar
    40    31    26   ar
    41     2     5    1
    42    21    22    1
