@<TRIPOS>MOLECULE
*****
 33 38 0 0 0
SMALL
GASTEIGER

@<TRIPOS>ATOM
      1 C         140.1767  140.8260  161.8819 C.3     1  UNL1        0.0339
      2 C         140.6212  141.6471  163.0560 C.ar    1  UNL1        0.0095
      3 C         141.4208  142.8971  162.8373 C.ar    1  UNL1        0.0730
      4 C         141.8652  143.7182  164.0114 C.ar    1  UNL1        0.1531
      5 F         142.6649  144.9683  163.7926 F       1  UNL1       -0.2029
      6 C         141.5100  143.2891  165.4041 C.ar    1  UNL1        0.0322
      7 C         140.7104  142.0390  165.6227 C.ar    1  UNL1        0.0194
      8 C         140.3552  141.6099  167.0155 C.ar    1  UNL1        0.0492
      9 C         139.5556  140.3598  167.2342 C.ar    1  UNL1        0.0621
     10 C         139.1112  139.5388  166.0601 C.ar    1  UNL1        0.2607
     11 O         138.3115  138.2886  166.2789 O.2     1  UNL1       -0.2670
     12 N         139.4664  139.9678  164.6674 N.ar    1  UNL1       -0.2977
     13 C         140.2660  141.2180  164.4487 C.ar    1  UNL1        0.0596
     14 C         140.7997  142.4309  168.1896 C.3     1  UNL1        0.3156
     15 N         139.9908  143.4857  168.8847 N.2     1  UNL1       -0.1325
     16 N         140.8222  144.0480  169.9994 N.am    1  UNL1       -0.0428
     17 C         142.1450  143.3407  169.9932 C.2     1  UNL1        0.4444
     18 O         143.2820  143.5892  170.9394 O.2     1  UNL1       -0.2225
     19 O         142.1310  142.3413  168.8747 O.3     1  UNL1       -0.4072
     20 N         141.7760  143.3263  161.4445 N.pl3   1  UNL1       -0.3059
     21 C         142.9720  142.8736  160.6605 C.3     1  UNL1        0.0909
     22 C         142.9328  143.5509  159.3227 C.3     1  UNL1        0.0244
     23 C         141.7125  144.4222  159.2799 C.3     1  UNL1        0.0344
     24 C         140.9976  144.2833  160.5913 C.3     1  UNL1        0.0921
     25 C         141.2826  145.2815  158.1280 C.3     1  UNL1        0.0406
     26 N         142.5054  146.1355  157.9696 N.3     1  UNL1       -0.3231
     27 C         140.4280  145.8440  157.0312 C.3     1  UNL1        0.0156
     28 C         139.9104  144.7257  157.8865 C.3     1  UNL1        0.0156
     29 H         143.2007  145.8663  158.6657 H       1  UNL1        0.1188
     30 H         142.2550  147.1156  158.1006 H       1  UNL1        0.1188
     31 C         139.0219  139.1468  163.4934 C.3     1  UNL1        0.0885
     32 C         139.2409  137.9978  162.5543 C.3     1  UNL1        0.0246
     33 C         138.0332  138.8738  162.3989 C.3     1  UNL1        0.0246
@<TRIPOS>BOND
     1     1     2    1
     2     2     3   ar
     3     3    20    1
     4    20    21    1
     5    21    22    1
     6    22    23    1
     7    23    25    1
     8    25    26    1
     9    25    27    1
    10    27    28    1
    11    23    24    1
    12     3     4   ar
    13     4     5    1
    14     4     6   ar
    15     6     7   ar
    16     7     8   ar
    17     8    14    1
    18    14    15    1
    19    15    16    2
    20    16    17    1
    21    17    18    2
    22    17    19    1
    23     8     9   ar
    24     9    10   ar
    25    10    11    2
    26    10    12   ar
    27    12    31    1
    28    31    32    1
    29    32    33    1
    30    12    13   ar
    31    13     2   ar
    32    24    20    1
    33    13     7   ar
    34    28    25    1
    35    19    14    1
    36    33    31    1
    37    26    29    1
    38    26    30    1
@<TRIPOS>MOLECULE
*****
 33 38 0 0 0
SMALL
GASTEIGER

@<TRIPOS>ATOM
      1 C         142.2209  140.8288  162.0353 C.3     1  UNL1        0.0339
      2 C         141.8455  141.6097  163.2598 C.ar    1  UNL1        0.0095
      3 C         141.1947  142.9541  163.1217 C.ar    1  UNL1        0.0730
      4 C         140.8193  143.7349  164.3462 C.ar    1  UNL1        0.1531
      5 F         140.1685  145.0794  164.2080 F       1  UNL1       -0.2029
      6 C         141.0946  143.1714  165.7087 C.ar    1  UNL1        0.0322
      7 C         141.7454  141.8270  165.8468 C.ar    1  UNL1        0.0194
      8 C         142.0207  141.2634  167.2094 C.ar    1  UNL1        0.0492
      9 C         142.6715  139.9191  167.3475 C.ar    1  UNL1        0.0621
     10 C         143.0469  139.1382  166.1231 C.ar    1  UNL1        0.2607
     11 O         143.6977  137.7938  166.2612 O.2     1  UNL1       -0.2670
     12 N         142.7716  139.7017  164.7605 N.ar    1  UNL1       -0.2977
     13 C         142.1208  141.0462  164.6224 C.ar    1  UNL1        0.0596
     14 C         141.6453  142.0443  168.4339 C.3     1  UNL1        0.3156
     15 N         142.5660  142.9044  169.2478 N.2     1  UNL1       -0.1325
     16 N         141.7730  143.4938  170.3764 N.am    1  UNL1       -0.0428
     17 C         140.3621  142.9980  170.2600 C.2     1  UNL1        0.4444
     18 O         139.2290  143.3383  171.1821 O.2     1  UNL1       -0.2225
     19 O         140.2832  142.1022  169.0594 O.3     1  UNL1       -0.4072
     20 N         140.9194  143.5177  161.7591 N.pl3   1  UNL1       -0.3059
     21 C         139.5651  143.7320  161.1508 C.3     1  UNL1        0.0909
     22 C         139.7586  144.3126  159.7814 C.3     1  UNL1        0.0244
     23 C         141.2326  144.4571  159.5433 C.3     1  UNL1        0.0344
     24 C         141.9499  143.9658  160.7656 C.3     1  UNL1        0.0921
     25 C         141.8762  144.9980  158.3010 C.3     1  UNL1        0.0406
     26 N         143.1610  144.2242  158.3152 N.3     1  UNL1       -0.3231
     27 C         142.0735  145.8077  157.0538 C.3     1  UNL1        0.0156
     28 C         140.8148  145.9597  157.8554 C.3     1  UNL1        0.0156
     29 H         143.1786  143.6092  159.1288 H       1  UNL1        0.1188
     30 H         143.9476  144.8720  158.3617 H       1  UNL1        0.1188
     31 C         143.1470  138.9209  163.5361 C.3     1  UNL1        0.0885
     32 C         142.8012  137.9096  162.4836 C.3     1  UNL1        0.0246
     33 C         144.1432  138.5797  162.4678 C.3     1  UNL1        0.0246
@<TRIPOS>BOND
     1     1     2    1
     2     2     3   ar
     3     3    20    1
     4    20    21    1
     5    21    22    1
     6    22    23    1
     7    23    25    1
     8    25    26    1
     9    25    27    1
    10    27    28    1
    11    23    24    1
    12     3     4   ar
    13     4     5    1
    14     4     6   ar
    15     6     7   ar
    16     7     8   ar
    17     8    14    1
    18    14    15    1
    19    15    16    2
    20    16    17    1
    21    17    18    2
    22    17    19    1
    23     8     9   ar
    24     9    10   ar
    25    10    11    2
    26    10    12   ar
    27    12    31    1
    28    31    32    1
    29    32    33    1
    30    12    13   ar
    31    13     2   ar
    32    24    20    1
    33    13     7   ar
    34    28    25    1
    35    19    14    1
    36    33    31    1
    37    26    29    1
    38    26    30    1
@<TRIPOS>MOLECULE
*****
 33 38 0 0 0
SMALL
GASTEIGER

@<TRIPOS>ATOM
      1 C         140.8950  139.9079  164.6806 C.3     1  UNL1        0.0339
      2 C         141.0849  141.1639  163.8829 C.ar    1  UNL1        0.0095
      3 C         141.4503  142.4437  164.5748 C.ar    1  UNL1        0.0730
      4 C         141.6402  143.6997  163.7771 C.ar    1  UNL1        0.1531
      5 F         142.0056  144.9795  164.4690 F       1  UNL1       -0.2029
      6 C         141.4647  143.6761  162.2876 C.ar    1  UNL1        0.0322
      7 C         141.0993  142.3963  161.5958 C.ar    1  UNL1        0.0194
      8 C         140.9238  142.3726  160.1063 C.ar    1  UNL1        0.0492
      9 C         140.5584  141.0928  159.4144 C.ar    1  UNL1        0.0621
     10 C         140.3685  139.8368  160.2121 C.ar    1  UNL1        0.2607
     11 O         140.0031  138.5570  159.5201 O.2     1  UNL1       -0.2670
     12 N         140.5440  139.8604  161.7015 N.ar    1  UNL1       -0.2977
     13 C         140.9094  141.1402  162.3935 C.ar    1  UNL1        0.0596
     14 C         141.1137  143.6287  159.3086 C.3     1  UNL1        0.3156
     15 N         142.4261  144.2826  158.9928 N.2     1  UNL1       -0.1325
     16 N         142.1481  145.5094  158.1757 N.am    1  UNL1       -0.0428
     17 C         140.6637  145.6137  157.9866 C.2     1  UNL1        0.4444
     18 O         139.9448  146.6912  157.2301 O.2     1  UNL1       -0.2225
     19 O         140.0244  144.4513  158.6867 O.3     1  UNL1       -0.4072
     20 N         141.6258  142.4674  166.0643 N.pl3   1  UNL1       -0.3059
     21 C         142.9159  142.2682  166.8034 C.3     1  UNL1        0.0909
     22 C         142.6295  142.3722  168.2721 C.3     1  UNL1        0.0244
     23 C         141.1624  142.6356  168.4408 C.3     1  UNL1        0.0344
     24 C         140.5422  142.6945  167.0763 C.3     1  UNL1        0.0921
     25 C         140.4422  142.8097  169.7450 C.3     1  UNL1        0.0406
     26 N         140.9608  144.1572  170.1511 N.3     1  UNL1       -0.3231
     27 C         139.5418  142.5157  170.9080 C.3     1  UNL1        0.0156
     28 C         139.6733  141.5226  169.7916 C.3     1  UNL1        0.0156
     29 H         141.6060  144.5017  169.4401 H       1  UNL1        0.1188
     30 H         141.4486  144.0789  171.0435 H       1  UNL1        0.1188
     31 C         140.3541  138.6044  162.4992 C.3     1  UNL1        0.0885
     32 C         139.4559  137.6620  163.2442 C.3     1  UNL1        0.0246
     33 C         140.9234  137.3712  163.1356 C.3     1  UNL1        0.0246
@<TRIPOS>BOND
     1     1     2    1
     2     2     3   ar
     3     3    20    1
     4    20    21    1
     5    21    22    1
     6    22    23    1
     7    23    25    1
     8    25    26    1
     9    25    27    1
    10    27    28    1
    11    23    24    1
    12     3     4   ar
    13     4     5    1
    14     4     6   ar
    15     6     7   ar
    16     7     8   ar
    17     8    14    1
    18    14    15    1
    19    15    16    2
    20    16    17    1
    21    17    18    2
    22    17    19    1
    23     8     9   ar
    24     9    10   ar
    25    10    11    2
    26    10    12   ar
    27    12    31    1
    28    31    32    1
    29    32    33    1
    30    12    13   ar
    31    13     2   ar
    32    24    20    1
    33    13     7   ar
    34    28    25    1
    35    19    14    1
    36    33    31    1
    37    26    29    1
    38    26    30    1
@<TRIPOS>MOLECULE
*****
 33 38 0 0 0
SMALL
GASTEIGER

@<TRIPOS>ATOM
      1 C         142.3983  142.6177  164.7231 C.3     1  UNL1        0.0339
      2 C         141.9588  141.5233  163.7962 C.ar    1  UNL1        0.0095
      3 C         141.6968  140.1469  164.3318 C.ar    1  UNL1        0.0730
      4 C         141.2573  139.0525  163.4049 C.ar    1  UNL1        0.1531
      5 F         140.9952  137.6761  163.9405 F       1  UNL1       -0.2029
      6 C         141.0798  139.3345  161.9424 C.ar    1  UNL1        0.0322
      7 C         141.3418  140.7109  161.4068 C.ar    1  UNL1        0.0194
      8 C         141.1643  140.9929  159.9442 C.ar    1  UNL1        0.0492
      9 C         141.4263  142.3693  159.4086 C.ar    1  UNL1        0.0621
     10 C         141.8658  143.4637  160.3355 C.ar    1  UNL1        0.2607
     11 O         142.1278  144.8401  159.7998 O.2     1  UNL1       -0.2670
     12 N         142.0433  143.1817  161.7980 N.ar    1  UNL1       -0.2977
     13 C         141.7813  141.8053  162.3337 C.ar    1  UNL1        0.0596
     14 C         140.7247  139.8985  159.0173 C.3     1  UNL1        0.3156
     15 N         139.3166  139.6290  158.5764 N.2     1  UNL1       -0.1325
     16 N         139.3377  138.4454  157.6552 N.am    1  UNL1       -0.0428
     17 C         140.7590  137.9834  157.5267 C.2     1  UNL1        0.4444
     18 O         141.2389  136.8265  156.7013 O.2     1  UNL1       -0.2225
     19 O         141.6162  138.8815  158.3685 O.3     1  UNL1       -0.4072
     20 N         141.8743  139.8649  165.7943 N.pl3   1  UNL1       -0.3059
     21 C         143.0773  139.2344  166.4310 C.3     1  UNL1        0.0909
     22 C         142.8265  139.1436  167.9071 C.3     1  UNL1        0.0244
     23 C         141.4685  139.7180  168.1827 C.3     1  UNL1        0.0344
     24 C         140.8800  140.1638  166.8769 C.3     1  UNL1        0.0921
     25 C         140.8139  139.8275  169.5279 C.3     1  UNL1        0.0406
     26 N         141.8579  139.1689  170.3799 N.3     1  UNL1       -0.3231
     27 C         139.7967  140.1657  170.5771 C.3     1  UNL1        0.0156
     28 C         139.5425  140.5241  169.1429 C.3     1  UNL1        0.0156
     29 H         142.6387  138.8739  169.7937 H       1  UNL1        0.1188
     30 H         141.4545  138.3549  170.8437 H       1  UNL1        0.1188
     31 C         142.4828  144.2761  162.7249 C.3     1  UNL1        0.0885
     32 C         143.5805  145.0630  163.3775 C.3     1  UNL1        0.0246
     33 C         142.1464  145.3846  163.6777 C.3     1  UNL1        0.0246
@<TRIPOS>BOND
     1     1     2    1
     2     2     3   ar
     3     3    20    1
     4    20    21    1
     5    21    22    1
     6    22    23    1
     7    23    25    1
     8    25    26    1
     9    25    27    1
    10    27    28    1
    11    23    24    1
    12     3     4   ar
    13     4     5    1
    14     4     6   ar
    15     6     7   ar
    16     7     8   ar
    17     8    14    1
    18    14    15    1
    19    15    16    2
    20    16    17    1
    21    17    18    2
    22    17    19    1
    23     8     9   ar
    24     9    10   ar
    25    10    11    2
    26    10    12   ar
    27    12    31    1
    28    31    32    1
    29    32    33    1
    30    12    13   ar
    31    13     2   ar
    32    24    20    1
    33    13     7   ar
    34    28    25    1
    35    19    14    1
    36    33    31    1
    37    26    29    1
    38    26    30    1
@<TRIPOS>MOLECULE
*****
 33 38 0 0 0
SMALL
GASTEIGER

@<TRIPOS>ATOM
      1 C         140.4064  142.7011  164.1869 C.3     1  UNL1        0.0339
      2 C         140.6431  141.5234  163.2886 C.ar    1  UNL1        0.0095
      3 C         140.3758  140.1342  163.7872 C.ar    1  UNL1        0.0730
      4 C         140.6125  138.9564  162.8889 C.ar    1  UNL1        0.1531
      5 F         140.3452  137.5672  163.3876 F       1  UNL1       -0.2029
      6 C         141.1165  139.1679  161.4921 C.ar    1  UNL1        0.0322
      7 C         141.3837  140.5571  160.9935 C.ar    1  UNL1        0.0194
      8 C         141.8877  140.7687  159.5965 C.ar    1  UNL1        0.0492
      9 C         142.1549  142.1579  159.0980 C.ar    1  UNL1        0.0621
     10 C         141.9183  143.3356  159.9963 C.ar    1  UNL1        0.2607
     11 O         142.1855  144.7249  159.4976 O.2     1  UNL1       -0.2670
     12 N         141.4143  143.1241  161.3931 N.ar    1  UNL1       -0.2977
     13 C         141.1470  141.7349  161.8918 C.ar    1  UNL1        0.0596
     14 C         142.1244  139.5909  158.6983 C.3     1  UNL1        0.3156
     15 N         143.4613  139.0298  158.3139 N.2     1  UNL1       -0.1325
     16 N         143.2289  137.8596  157.4047 N.am    1  UNL1       -0.0428
     17 C         141.7483  137.6975  157.2271 C.2     1  UNL1        0.4444
     18 O         141.0695  136.6494  156.3961 O.2     1  UNL1       -0.2225
     19 O         141.0657  138.7675  158.0266 O.3     1  UNL1       -0.4072
     20 N         139.8718  139.9226  165.1841 N.pl3   1  UNL1       -0.3059
     21 C         138.5119  139.4160  165.5635 C.3     1  UNL1        0.0909
     22 C         138.4388  139.3609  167.0607 C.3     1  UNL1        0.0244
     23 C         139.7537  139.8334  167.6066 C.3     1  UNL1        0.0344
     24 C         140.6393  140.1805  166.4468 C.3     1  UNL1        0.0921
     25 C         140.1188  139.9399  169.0576 C.3     1  UNL1        0.0406
     26 N         138.7495  139.9763  169.6688 N.3     1  UNL1       -0.3231
     27 C         140.9595  140.0339  170.2963 C.3     1  UNL1        0.0156
     28 C         141.6150  139.9406  168.9503 C.3     1  UNL1        0.0156
     29 H         138.0466  139.9193  168.9318 H       1  UNL1        0.1188
     30 H         138.6307  140.8479  170.1852 H       1  UNL1        0.1188
     31 C         141.1776  144.3019  162.2914 C.3     1  UNL1        0.0885
     32 C         140.2886  145.4092  162.7745 C.3     1  UNL1        0.0246
     33 C         141.6567  145.2344  163.3641 C.3     1  UNL1        0.0246
@<TRIPOS>BOND
     1     1     2    1
     2     2     3   ar
     3     3    20    1
     4    20    21    1
     5    21    22    1
     6    22    23    1
     7    23    25    1
     8    25    26    1
     9    25    27    1
    10    27    28    1
    11    23    24    1
    12     3     4   ar
    13     4     5    1
    14     4     6   ar
    15     6     7   ar
    16     7     8   ar
    17     8    14    1
    18    14    15    1
    19    15    16    2
    20    16    17    1
    21    17    18    2
    22    17    19    1
    23     8     9   ar
    24     9    10   ar
    25    10    11    2
    26    10    12   ar
    27    12    31    1
    28    31    32    1
    29    32    33    1
    30    12    13   ar
    31    13     2   ar
    32    24    20    1
    33    13     7   ar
    34    28    25    1
    35    19    14    1
    36    33    31    1
    37    26    29    1
    38    26    30    1
@<TRIPOS>MOLECULE
*****
 33 38 0 0 0
SMALL
GASTEIGER

@<TRIPOS>ATOM
      1 C         139.9574  141.6787  164.6792 C.3     1  UNL1        0.0339
      2 C         141.1221  141.4152  163.7714 C.ar    1  UNL1        0.0095
      3 C         142.4036  140.8747  164.3332 C.ar    1  UNL1        0.0730
      4 C         143.5682  140.6112  163.4254 C.ar    1  UNL1        0.1531
      5 F         144.8498  140.0706  163.9872 F       1  UNL1       -0.2029
      6 C         143.4514  140.8881  161.9558 C.ar    1  UNL1        0.0322
      7 C         142.1699  141.4286  161.3941 C.ar    1  UNL1        0.0194
      8 C         142.0530  141.7056  159.9245 C.ar    1  UNL1        0.0492
      9 C         140.7715  142.2461  159.3627 C.ar    1  UNL1        0.0621
     10 C         139.6069  142.5096  160.2705 C.ar    1  UNL1        0.2607
     11 O         138.3253  143.0501  159.7087 O.2     1  UNL1       -0.2670
     12 N         139.7237  142.2326  161.7401 N.ar    1  UNL1       -0.2977
     13 C         141.0052  141.6921  162.3019 C.ar    1  UNL1        0.0596
     14 C         143.2177  141.4421  159.0167 C.3     1  UNL1        0.3156
     15 N         143.5869  140.1172  158.4181 N.2     1  UNL1       -0.1325
     16 N         144.8150  140.3134  157.5795 N.am    1  UNL1       -0.0428
     17 C         145.2049  141.7596  157.6598 C.2     1  UNL1        0.4444
     18 O         146.3762  142.3965  156.9726 O.2     1  UNL1       -0.2225
     19 O         144.2177  142.4572  158.5480 O.3     1  UNL1       -0.4072
     20 N         142.5205  140.5977  165.8028 N.pl3   1  UNL1       -0.3059
     21 C         142.6386  139.2441  166.4382 C.3     1  UNL1        0.0909
     22 C         142.7309  139.4354  167.9230 C.3     1  UNL1        0.0244
     23 C         142.6698  140.9074  168.2053 C.3     1  UNL1        0.0344
     24 C         142.5397  141.6257  166.8949 C.3     1  UNL1        0.0921
     25 C         142.7284  141.5485  169.5602 C.3     1  UNL1        0.0406
     26 N         143.5091  140.5080  170.3071 N.3     1  UNL1       -0.3231
     27 C         142.5159  142.5509  170.6556 C.3     1  UNL1        0.0156
     28 C         141.9681  142.8116  169.2838 C.3     1  UNL1        0.0156
     29 H         143.7362  139.7372  169.6788 H       1  UNL1        0.1188
     30 H         142.9513  140.1586  171.0862 H       1  UNL1        0.1188
     31 C         138.5590  142.4962  162.6479 C.3     1  UNL1        0.0885
     32 C         137.3459  142.0048  163.3806 C.3     1  UNL1        0.0246
     33 C         137.7549  143.4440  163.4875 C.3     1  UNL1        0.0246
@<TRIPOS>BOND
     1     1     2    1
     2     2     3   ar
     3     3    20    1
     4    20    21    1
     5    21    22    1
     6    22    23    1
     7    23    25    1
     8    25    26    1
     9    25    27    1
    10    27    28    1
    11    23    24    1
    12     3     4   ar
    13     4     5    1
    14     4     6   ar
    15     6     7   ar
    16     7     8   ar
    17     8    14    1
    18    14    15    1
    19    15    16    2
    20    16    17    1
    21    17    18    2
    22    17    19    1
    23     8     9   ar
    24     9    10   ar
    25    10    11    2
    26    10    12   ar
    27    12    31    1
    28    31    32    1
    29    32    33    1
    30    12    13   ar
    31    13     2   ar
    32    24    20    1
    33    13     7   ar
    34    28    25    1
    35    19    14    1
    36    33    31    1
    37    26    29    1
    38    26    30    1
@<TRIPOS>MOLECULE
*****
 33 38 0 0 0
SMALL
GASTEIGER

@<TRIPOS>ATOM
      1 C         142.8121  141.4811  165.0059 C.3     1  UNL1        0.0339
      2 C         141.6408  141.4730  164.0689 C.ar    1  UNL1        0.0095
      3 C         140.2615  141.2065  164.5949 C.ar    1  UNL1        0.0730
      4 C         139.0901  141.1984  163.6580 C.ar    1  UNL1        0.1531
      5 F         137.7108  140.9319  164.1840 F       1  UNL1       -0.2029
      6 C         139.2980  141.4566  162.1951 C.ar    1  UNL1        0.0322
      7 C         140.6773  141.7230  161.6691 C.ar    1  UNL1        0.0194
      8 C         140.8852  141.9812  160.2062 C.ar    1  UNL1        0.0492
      9 C         142.2644  142.2477  159.6802 C.ar    1  UNL1        0.0621
     10 C         143.4358  142.2558  160.6171 C.ar    1  UNL1        0.2607
     11 O         144.8151  142.5223  160.0911 O.2     1  UNL1       -0.2670
     12 N         143.2279  141.9976  162.0800 N.ar    1  UNL1       -0.2977
     13 C         141.8486  141.7312  162.6061 C.ar    1  UNL1        0.0596
     14 C         139.7138  141.9731  159.2693 C.3     1  UNL1        0.3156
     15 N         138.9610  143.1780  158.7884 N.2     1  UNL1       -0.1325
     16 N         137.8715  142.7082  157.8706 N.am    1  UNL1       -0.0428
     17 C         137.9510  141.2128  157.7843 C.2     1  UNL1        0.4444
     18 O         137.0501  140.3272  156.9756 O.2     1  UNL1       -0.2225
     19 O         139.0896  140.7585  158.6487 O.3     1  UNL1       -0.4072
     20 N         140.0536  140.9483  166.0578 N.pl3   1  UNL1       -0.3059
     21 C         139.6428  139.6434  166.6731 C.3     1  UNL1        0.0909
     22 C         139.5553  139.8382  168.1579 C.3     1  UNL1        0.0244
     23 C         139.9120  141.2635  168.4602 C.3     1  UNL1        0.0344
     24 C         140.2199  141.9495  167.1623 C.3     1  UNL1        0.0921
     25 C         139.9534  141.8923  169.8214 C.3     1  UNL1        0.0406
     26 N         139.5643  140.7143  170.6644 N.3     1  UNL1       -0.3231
     27 C         140.1300  142.9303  170.8897 C.3     1  UNL1        0.0156
     28 C         140.3569  143.2887  169.4510 C.3     1  UNL1        0.0156
     29 H         139.4052  139.9047  170.0647 H       1  UNL1        0.1188
     30 H         138.7097  140.9307  171.1773 H       1  UNL1        0.1188
     31 C         144.3993  142.0058  163.0169 C.3     1  UNL1        0.0885
     32 C         145.6022  141.3243  163.5986 C.3     1  UNL1        0.0246
     33 C         145.2252  142.7015  164.0580 C.3     1  UNL1        0.0246
@<TRIPOS>BOND
     1     1     2    1
     2     2     3   ar
     3     3    20    1
     4    20    21    1
     5    21    22    1
     6    22    23    1
     7    23    25    1
     8    25    26    1
     9    25    27    1
    10    27    28    1
    11    23    24    1
    12     3     4   ar
    13     4     5    1
    14     4     6   ar
    15     6     7   ar
    16     7     8   ar
    17     8    14    1
    18    14    15    1
    19    15    16    2
    20    16    17    1
    21    17    18    2
    22    17    19    1
    23     8     9   ar
    24     9    10   ar
    25    10    11    2
    26    10    12   ar
    27    12    31    1
    28    31    32    1
    29    32    33    1
    30    12    13   ar
    31    13     2   ar
    32    24    20    1
    33    13     7   ar
    34    28    25    1
    35    19    14    1
    36    33    31    1
    37    26    29    1
    38    26    30    1
@<TRIPOS>MOLECULE
*****
 33 38 0 0 0
SMALL
GASTEIGER

@<TRIPOS>ATOM
      1 C         140.8935  142.6559  164.1835 C.3     1  UNL1        0.0339
      2 C         140.9091  141.4731  163.2612 C.ar    1  UNL1        0.0095
      3 C         141.2225  140.1078  163.7977 C.ar    1  UNL1        0.0730
      4 C         141.2381  138.9250  162.8754 C.ar    1  UNL1        0.1531
      5 F         141.5515  137.5597  163.4120 F       1  UNL1       -0.2029
      6 C         140.9403  139.1074  161.4167 C.ar    1  UNL1        0.0322
      7 C         140.6269  140.4726  160.8802 C.ar    1  UNL1        0.0194
      8 C         140.3291  140.6551  159.4214 C.ar    1  UNL1        0.0492
      9 C         140.0157  142.0203  158.8849 C.ar    1  UNL1        0.0621
     10 C         140.0001  143.2032  159.8072 C.ar    1  UNL1        0.2607
     11 O         139.6867  144.5685  159.2707 O.2     1  UNL1       -0.2670
     12 N         140.2979  143.0208  161.2660 N.ar    1  UNL1       -0.2977
     13 C         140.6113  141.6555  161.8025 C.ar    1  UNL1        0.0596
     14 C         140.3447  139.4722  158.4991 C.3     1  UNL1        0.3156
     15 N         141.5491  138.6578  158.1300 N.2     1  UNL1       -0.1325
     16 N         141.1074  137.5783  157.1867 N.am    1  UNL1       -0.0428
     17 C         139.6301  137.7256  156.9729 C.2     1  UNL1        0.4444
     18 O         138.7743  136.8552  156.1010 O.2     1  UNL1       -0.2225
     19 O         139.1587  138.8961  157.7839 O.3     1  UNL1       -0.4072
     20 N         141.5203  139.9254  165.2565 N.pl3   1  UNL1       -0.3059
     21 C         142.8488  139.5532  165.8454 C.3     1  UNL1        0.0909
     22 C         142.6915  139.4808  167.3353 C.3     1  UNL1        0.0244
     23 C         141.2658  139.8084  167.6674 C.3     1  UNL1        0.0344
     24 C         140.5420  140.0831  166.3826 C.3     1  UNL1        0.0921
     25 C         140.6688  139.8533  169.0427 C.3     1  UNL1        0.0406
     26 N         139.2104  139.8767  168.6929 N.3     1  UNL1       -0.3231
     27 C         140.5783  139.8901  170.5395 C.3     1  UNL1        0.0156
     28 C         141.9199  139.8455  169.8701 C.3     1  UNL1        0.0156
     29 H         139.1036  139.8554  167.6787 H       1  UNL1        0.1188
     30 H         138.7859  140.7277  169.0617 H       1  UNL1        0.1188
     31 C         140.2823  144.2036  162.1882 C.3     1  UNL1        0.0885
     32 C         141.0143  145.2843  162.9273 C.3     1  UNL1        0.0246
     33 C         139.5233  145.1717  163.0466 C.3     1  UNL1        0.0246
@<TRIPOS>BOND
     1     1     2    1
     2     2     3   ar
     3     3    20    1
     4    20    21    1
     5    21    22    1
     6    22    23    1
     7    23    25    1
     8    25    26    1
     9    25    27    1
    10    27    28    1
    11    23    24    1
    12     3     4   ar
    13     4     5    1
    14     4     6   ar
    15     6     7   ar
    16     7     8   ar
    17     8    14    1
    18    14    15    1
    19    15    16    2
    20    16    17    1
    21    17    18    2
    22    17    19    1
    23     8     9   ar
    24     9    10   ar
    25    10    11    2
    26    10    12   ar
    27    12    31    1
    28    31    32    1
    29    32    33    1
    30    12    13   ar
    31    13     2   ar
    32    24    20    1
    33    13     7   ar
    34    28    25    1
    35    19    14    1
    36    33    31    1
    37    26    29    1
    38    26    30    1
@<TRIPOS>MOLECULE
*****
 33 38 0 0 0
SMALL
GASTEIGER

@<TRIPOS>ATOM
      1 C         140.2694  142.8531  164.4942 C.3     1  UNL1        0.0339
      2 C         141.0781  141.9261  163.6358 C.ar    1  UNL1        0.0095
      3 C         142.2718  141.2222  164.2099 C.ar    1  UNL1        0.0730
      4 C         143.0805  140.2953  163.3516 C.ar    1  UNL1        0.1531
      5 F         144.2742  139.5914  163.9257 F       1  UNL1       -0.2029
      6 C         142.6955  140.0723  161.9191 C.ar    1  UNL1        0.0322
      7 C         141.5019  140.7762  161.3450 C.ar    1  UNL1        0.0194
      8 C         141.1168  140.5531  159.9125 C.ar    1  UNL1        0.0492
      9 C         139.9231  141.2570  159.3384 C.ar    1  UNL1        0.0621
     10 C         139.1144  142.1839  160.1967 C.ar    1  UNL1        0.2607
     11 O         137.9207  142.8879  159.6226 O.2     1  UNL1       -0.2670
     12 N         139.4994  142.4070  161.6292 N.ar    1  UNL1       -0.2977
     13 C         140.6932  141.7031  162.2034 C.ar    1  UNL1        0.0596
     14 C         141.9255  139.6262  159.0541 C.3     1  UNL1        0.3156
     15 N         143.1198  140.0051  158.2293 N.2     1  UNL1       -0.1325
     16 N         143.6143  138.7707  157.5353 N.am    1  UNL1       -0.0428
     17 C         142.7257  137.6289  157.9311 C.2     1  UNL1        0.4444
     18 O         142.8576  136.2078  157.4693 O.2     1  UNL1       -0.2225
     19 O         141.6820  138.1576  158.8697 O.3     1  UNL1       -0.4072
     20 N         142.6568  141.4453  165.6425 N.pl3   1  UNL1       -0.3059
     21 C         143.4131  142.6244  166.1788 C.3     1  UNL1        0.0909
     22 C         143.5769  142.4363  167.6579 C.3     1  UNL1        0.0244
     23 C         142.9218  141.1407  168.0357 C.3     1  UNL1        0.0344
     24 C         142.3533  140.5283  166.7901 C.3     1  UNL1        0.0921
     25 C         142.8483  140.5597  169.4167 C.3     1  UNL1        0.0406
     26 N         143.4462  141.6867  170.2055 N.3     1  UNL1       -0.3231
     27 C         142.5672  139.5873  170.5236 C.3     1  UNL1        0.0156
     28 C         142.2249  139.2309  169.1073 C.3     1  UNL1        0.0156
     29 H         143.6972  142.4478  169.5745 H       1  UNL1        0.1188
     30 H         144.2813  141.3572  170.6898 H       1  UNL1        0.1188
     31 C         138.6907  143.3339  162.4876 C.3     1  UNL1        0.0885
     32 C         137.5782  143.5569  163.4686 C.3     1  UNL1        0.0246
     33 C         138.4026  144.7164  162.9932 C.3     1  UNL1        0.0246
@<TRIPOS>BOND
     1     1     2    1
     2     2     3   ar
     3     3    20    1
     4    20    21    1
     5    21    22    1
     6    22    23    1
     7    23    25    1
     8    25    26    1
     9    25    27    1
    10    27    28    1
    11    23    24    1
    12     3     4   ar
    13     4     5    1
    14     4     6   ar
    15     6     7   ar
    16     7     8   ar
    17     8    14    1
    18    14    15    1
    19    15    16    2
    20    16    17    1
    21    17    18    2
    22    17    19    1
    23     8     9   ar
    24     9    10   ar
    25    10    11    2
    26    10    12   ar
    27    12    31    1
    28    31    32    1
    29    32    33    1
    30    12    13   ar
    31    13     2   ar
    32    24    20    1
    33    13     7   ar
    34    28    25    1
    35    19    14    1
    36    33    31    1
    37    26    29    1
    38    26    30    1
