@<TRIPOS>MOLECULE
*****
 36 39 0 0 0
SMALL
GASTEIGER

@<TRIPOS>ATOM
      1 C         140.6799  139.7710  169.8575 C.3     1  UNL1        0.1459
      2 O         140.2669  139.2009  171.1820 O.3     1  UNL1       -0.3813
      3 H         139.3184  139.3521  171.3175 H       1  UNL1        0.2105
      4 C         139.6655  140.4454  168.9821 C.3     1  UNL1        0.1204
      5 O         137.5997  138.6369  167.7730 O.2     1  UNL1       -0.2701
      6 C         138.6308  139.2875  166.8991 C.2     1  UNL1        0.2469
      7 N         139.6637  140.1917  167.5037 N.am    1  UNL1       -0.2985
      8 H         140.3404  140.6188  166.9301 H       1  UNL1        0.1498
      9 C         138.6290  139.0339  165.4207 C.2     1  UNL1        0.0665
     10 C         138.9058  137.6563  164.8958 C.2     1  UNL1        0.0931
     11 N         138.9040  137.4026  163.4174 N.am    1  UNL1       -0.1740
     12 C         138.6254  138.5266  162.4639 C.2     1  UNL1        0.2687
     13 O         138.6236  138.2729  160.9855 O.2     1  UNL1       -0.2680
     14 C         138.3486  139.9043  162.9888 C.2     1  UNL1        0.0521
     15 C         138.0700  141.0282  162.0354 C.2     1  UNL1        0.0062
     16 C         137.7933  142.4058  162.5603 C.2     1  UNL1        0.0256
     17 C         137.7951  142.6594  164.0387 C.2     1  UNL1        0.1220
     18 F         137.5183  144.0371  164.5637 F       1  UNL1       -0.2085
     19 C         138.0737  141.5355  164.9922 C.3     1  UNL1        0.0831
     20 C         138.3504  140.1579  164.4672 C.2     1  UNL1       -0.0053
     21 C         142.1073  139.6667  169.4083 C.3     1  UNL1        0.1034
     22 N         142.5389  140.3130  168.1253 N.3     1  UNL1       -0.2704
     23 C         142.8273  141.7845  168.0867 C.3     1  UNL1        0.0759
     24 C         143.2589  142.4307  166.8037 C.3     1  UNL1        0.0609
     25 C         143.4022  141.6054  165.5593 C.3     1  UNL1        0.1687
     26 C         143.1139  140.1339  165.5980 C.3     1  UNL1        0.0609
     27 C         142.6822  139.4877  166.8810 C.3     1  UNL1        0.0759
     28 O         143.8339  142.2516  164.2764 O.3     1  UNL1       -0.4790
     29 C         142.8786  143.1246  163.5178 C.ar    1  UNL1        0.1393
     30 C         142.6244  144.5309  163.9734 C.ar    1  UNL1        0.0378
     31 C         141.6691  145.4039  163.2148 C.ar    1  UNL1        0.0154
     32 C         140.9681  144.8706  162.0007 C.ar    1  UNL1        0.0684
     33 CL        140.0128  145.7435  161.2422 Cl      1  UNL1       -0.0814
     34 C         141.2223  143.4642  161.5452 C.ar    1  UNL1        0.0712
     35 CL        140.5213  142.9308  160.3310 Cl      1  UNL1       -0.0813
     36 C         142.1776  142.5913  162.3037 C.ar    1  UNL1        0.0491
@<TRIPOS>BOND
     1     5     6    2
     2     6     7   am
     3     7     4    1
     4     4     1    1
     5     1     2    1
     6     1    21    1
     7    21    22    1
     8    22    23    1
     9    23    24    1
    10    24    25    1
    11    25    28    1
    12    28    29    1
    13    29    30   ar
    14    30    31   ar
    15    31    32   ar
    16    32    33    1
    17    32    34   ar
    18    34    35    1
    19    34    36   ar
    20    25    26    1
    21    26    27    1
    22     6     9    1
    23     9    10    1
    24    10    11    2
    25    11    12    1
    26    12    13    2
    27    12    14    1
    28    14    15    2
    29    15    16    1
    30    16    17    2
    31    17    18    1
    32    17    19    1
    33    19    20    1
    34    27    22    1
    35    20     9    2
    36    36    29   ar
    37    20    14    1
    38     7     8    1
    39     2     3    1
@<TRIPOS>MOLECULE
*****
 36 39 0 0 0
SMALL
GASTEIGER

@<TRIPOS>ATOM
      1 C         139.9329  141.3454  169.4989 C.3     1  UNL1        0.1459
      2 O         138.8492  141.5688  170.5116 O.3     1  UNL1       -0.3813
      3 H         138.3759  140.7366  170.6676 H       1  UNL1        0.2105
      4 C         140.1343  139.9832  168.9040 C.3     1  UNL1        0.1204
      5 O         137.6934  138.7155  167.7060 O.2     1  UNL1       -0.2701
      6 C         138.8203  139.1580  166.8202 C.2     1  UNL1        0.2469
      7 N         140.0407  139.7918  167.4192 N.am    1  UNL1       -0.2985
      8 H         140.7802  140.0822  166.8379 H       1  UNL1        0.1498
      9 C         138.7266  138.9666  165.3354 C.2     1  UNL1        0.0665
     10 C         139.0083  137.6220  164.7333 C.2     1  UNL1        0.0931
     11 N         138.9146  137.4307  163.2485 N.am    1  UNL1       -0.1740
     12 C         138.5392  138.5839  162.3659 C.2     1  UNL1        0.2687
     13 O         138.4456  138.3926  160.8811 O.2     1  UNL1       -0.2680
     14 C         138.2575  139.9286  162.9680 C.2     1  UNL1        0.0521
     15 C         137.8822  141.0819  162.0854 C.2     1  UNL1        0.0062
     16 C         137.6005  142.4265  162.6875 C.2     1  UNL1        0.0256
     17 C         137.6942  142.6178  164.1723 C.2     1  UNL1        0.1220
     18 F         137.4125  143.9625  164.7745 F       1  UNL1       -0.2085
     19 C         138.0695  141.4646  165.0550 C.3     1  UNL1        0.0831
     20 C         138.3512  140.1200  164.4528 C.2     1  UNL1       -0.0053
     21 C         140.8152  142.4842  169.0809 C.3     1  UNL1        0.1034
     22 N         141.4154  142.5026  167.7064 N.3     1  UNL1       -0.2704
     23 C         140.6216  143.0308  166.5484 C.3     1  UNL1        0.0759
     24 C         141.2217  143.0492  165.1739 C.3     1  UNL1        0.0609
     25 C         142.6158  142.5395  164.9572 C.3     1  UNL1        0.1687
     26 C         143.4096  142.0113  166.1152 C.3     1  UNL1        0.0609
     27 C         142.8094  141.9929  167.4898 C.3     1  UNL1        0.0759
     28 O         143.2159  142.5579  163.5827 O.3     1  UNL1       -0.4790
     29 C         142.8380  141.5034  162.5851 C.ar    1  UNL1        0.1393
     30 C         141.6758  141.7254  161.6631 C.ar    1  UNL1        0.0378
     31 C         141.2979  140.6709  160.6654 C.ar    1  UNL1        0.0154
     32 C         142.0821  139.3945  160.5898 C.ar    1  UNL1        0.0684
     33 CL        141.7042  138.3400  159.5922 Cl      1  UNL1       -0.0814
     34 C         143.2442  139.1725  161.5118 C.ar    1  UNL1        0.0712
     35 CL        144.0285  137.8961  161.4363 Cl      1  UNL1       -0.0813
     36 C         143.6222  140.2270  162.5095 C.ar    1  UNL1        0.0491
@<TRIPOS>BOND
     1     5     6    2
     2     6     7   am
     3     7     4    1
     4     4     1    1
     5     1     2    1
     6     1    21    1
     7    21    22    1
     8    22    23    1
     9    23    24    1
    10    24    25    1
    11    25    28    1
    12    28    29    1
    13    29    30   ar
    14    30    31   ar
    15    31    32   ar
    16    32    33    1
    17    32    34   ar
    18    34    35    1
    19    34    36   ar
    20    25    26    1
    21    26    27    1
    22     6     9    1
    23     9    10    1
    24    10    11    2
    25    11    12    1
    26    12    13    2
    27    12    14    1
    28    14    15    2
    29    15    16    1
    30    16    17    2
    31    17    18    1
    32    17    19    1
    33    19    20    1
    34    27    22    1
    35    20     9    2
    36    36    29   ar
    37    20    14    1
    38     7     8    1
    39     2     3    1
@<TRIPOS>MOLECULE
*****
 36 39 0 0 0
SMALL
GASTEIGER

@<TRIPOS>ATOM
      1 C         139.6635  145.4915  161.9827 C.3     1  UNL1        0.1459
      2 O         140.3783  146.7480  162.3828 O.3     1  UNL1       -0.3813
      3 H         141.0722  146.9457  161.7345 H       1  UNL1        0.2105
      4 C         140.0730  144.7592  160.7391 C.3     1  UNL1        0.1204
      5 O         143.0330  144.2778  160.8215 O.2     1  UNL1       -0.2701
      6 C         142.0827  143.1184  160.8745 C.2     1  UNL1        0.2469
      7 N         140.6028  143.3591  160.8333 N.am    1  UNL1       -0.2985
      8 H         139.9791  142.5981  160.8681 H       1  UNL1        0.1498
      9 C         142.6125  141.7182  160.9687 C.2     1  UNL1        0.0665
     10 C         142.5190  140.7998  159.7865 C.2     1  UNL1        0.0931
     11 N         143.0488  139.3996  159.8807 N.am    1  UNL1       -0.1740
     12 C         143.6721  138.9179  161.1571 C.2     1  UNL1        0.2687
     13 O         144.2019  137.5177  161.2513 O.2     1  UNL1       -0.2680
     14 C         143.7656  139.8363  162.3395 C.2     1  UNL1        0.0521
     15 C         144.3889  139.3545  163.6159 C.2     1  UNL1        0.0062
     16 C         144.4824  140.2729  164.7982 C.2     1  UNL1        0.0256
     17 C         143.9526  141.6731  164.7039 C.2     1  UNL1        0.1220
     18 F         144.0461  142.5915  165.8863 F       1  UNL1       -0.2085
     19 C         143.3293  142.1549  163.4275 C.3     1  UNL1        0.0831
     20 C         143.2358  141.2364  162.2453 C.2     1  UNL1       -0.0053
     21 C         138.5393  144.9671  162.8259 C.3     1  UNL1        0.1034
     22 N         138.7139  143.6953  163.6019 N.3     1  UNL1       -0.2704
     23 C         137.7355  142.5715  163.4300 C.3     1  UNL1        0.0759
     24 C         137.9101  141.2997  164.2060 C.3     1  UNL1        0.0609
     25 C         139.0631  141.1519  165.1540 C.3     1  UNL1        0.1687
     26 C         140.0416  142.2757  165.3259 C.3     1  UNL1        0.0609
     27 C         139.8669  143.5475  164.5499 C.3     1  UNL1        0.0759
     28 O         139.2377  139.8801  165.9300 O.3     1  UNL1       -0.4790
     29 C         140.1937  139.8314  167.0848 C.ar    1  UNL1        0.1393
     30 C         141.6534  139.5875  166.8403 C.ar    1  UNL1        0.0378
     31 C         142.6094  139.5388  167.9952 C.ar    1  UNL1        0.0154
     32 C         142.1058  139.7340  169.3945 C.ar    1  UNL1        0.0684
     33 CL        143.0618  139.6853  170.5493 Cl      1  UNL1       -0.0814
     34 C         140.6461  139.9779  169.6390 C.ar    1  UNL1        0.0712
     35 CL        140.1424  140.1731  171.0384 Cl      1  UNL1       -0.0813
     36 C         139.6901  140.0266  168.4841 C.ar    1  UNL1        0.0491
@<TRIPOS>BOND
     1     5     6    2
     2     6     7   am
     3     7     4    1
     4     4     1    1
     5     1     2    1
     6     1    21    1
     7    21    22    1
     8    22    23    1
     9    23    24    1
    10    24    25    1
    11    25    28    1
    12    28    29    1
    13    29    30   ar
    14    30    31   ar
    15    31    32   ar
    16    32    33    1
    17    32    34   ar
    18    34    35    1
    19    34    36   ar
    20    25    26    1
    21    26    27    1
    22     6     9    1
    23     9    10    1
    24    10    11    2
    25    11    12    1
    26    12    13    2
    27    12    14    1
    28    14    15    2
    29    15    16    1
    30    16    17    2
    31    17    18    1
    32    17    19    1
    33    19    20    1
    34    27    22    1
    35    20     9    2
    36    36    29   ar
    37    20    14    1
    38     7     8    1
    39     2     3    1
@<TRIPOS>MOLECULE
*****
 36 39 0 0 0
SMALL
GASTEIGER

@<TRIPOS>ATOM
      1 C         143.5330  138.8595  160.4142 C.3     1  UNL1        0.1459
      2 O         143.3331  138.3294  159.0254 O.3     1  UNL1       -0.3813
      3 H         143.3808  139.0608  158.3901 H       1  UNL1        0.2105
      4 C         143.7619  140.3259  160.6316 C.3     1  UNL1        0.1204
      5 O         141.9937  142.5905  159.7683 O.2     1  UNL1       -0.2701
      6 C         142.0623  142.2021  161.2156 C.2     1  UNL1        0.2469
      7 N         142.9464  141.0699  161.6472 N.am    1  UNL1       -0.2985
      8 H         142.9914  140.8150  162.5971 H       1  UNL1        0.1498
      9 C         141.2468  142.9460  162.2312 C.2     1  UNL1        0.0665
     10 C         141.8081  144.1690  162.8939 C.2     1  UNL1        0.0931
     11 N         140.9926  144.9129  163.9095 N.am    1  UNL1       -0.1740
     12 C         139.6157  144.4339  164.2624 C.2     1  UNL1        0.2687
     13 O         138.8001  145.1778  165.2780 O.2     1  UNL1       -0.2680
     14 C         139.0542  143.2109  163.5998 C.2     1  UNL1        0.0521
     15 C         137.6773  142.7318  163.9527 C.2     1  UNL1        0.0062
     16 C         137.1160  141.5089  163.2900 C.2     1  UNL1        0.0256
     17 C         137.9315  140.7649  162.2744 C.2     1  UNL1        0.1220
     18 F         137.3701  139.5419  161.6118 F       1  UNL1       -0.2085
     19 C         139.3084  141.2440  161.9215 C.3     1  UNL1        0.0831
     20 C         139.8698  142.4669  162.5841 C.2     1  UNL1       -0.0053
     21 C         143.5040  137.9232  161.5858 C.3     1  UNL1        0.1034
     22 N         142.5844  138.1938  162.7395 N.3     1  UNL1       -0.2704
     23 C         141.1081  137.9743  162.5894 C.3     1  UNL1        0.0759
     24 C         140.1885  138.2449  163.7431 C.3     1  UNL1        0.0609
     25 C         140.7452  138.7350  165.0470 C.3     1  UNL1        0.1687
     26 C         142.2214  138.9544  165.1971 C.3     1  UNL1        0.0609
     27 C         143.1410  138.6838  164.0433 C.3     1  UNL1        0.0759
     28 O         139.8256  139.0055  166.2007 O.3     1  UNL1       -0.4790
     29 C         140.0678  140.1877  167.0916 C.ar    1  UNL1        0.1393
     30 C         140.2427  141.5529  166.4954 C.ar    1  UNL1        0.0378
     31 C         140.4849  142.7351  167.3863 C.ar    1  UNL1        0.0154
     32 C         140.5523  142.5520  168.8735 C.ar    1  UNL1        0.0684
     33 CL        140.7945  143.7342  169.7645 Cl      1  UNL1       -0.0814
     34 C         140.3774  141.1868  169.4698 C.ar    1  UNL1        0.0712
     35 CL        140.4448  141.0038  170.9571 Cl      1  UNL1       -0.0813
     36 C         140.1352  140.0047  168.5789 C.ar    1  UNL1        0.0491
@<TRIPOS>BOND
     1     5     6    2
     2     6     7   am
     3     7     4    1
     4     4     1    1
     5     1     2    1
     6     1    21    1
     7    21    22    1
     8    22    23    1
     9    23    24    1
    10    24    25    1
    11    25    28    1
    12    28    29    1
    13    29    30   ar
    14    30    31   ar
    15    31    32   ar
    16    32    33    1
    17    32    34   ar
    18    34    35    1
    19    34    36   ar
    20    25    26    1
    21    26    27    1
    22     6     9    1
    23     9    10    1
    24    10    11    2
    25    11    12    1
    26    12    13    2
    27    12    14    1
    28    14    15    2
    29    15    16    1
    30    16    17    2
    31    17    18    1
    32    17    19    1
    33    19    20    1
    34    27    22    1
    35    20     9    2
    36    36    29   ar
    37    20    14    1
    38     7     8    1
    39     2     3    1
@<TRIPOS>MOLECULE
*****
 36 39 0 0 0
SMALL
GASTEIGER

@<TRIPOS>ATOM
      1 C         141.7360  145.1004  158.3436 C.3     1  UNL1        0.1459
      2 O         142.5991  146.2626  157.9509 O.3     1  UNL1       -0.3813
      3 H         143.4632  145.9376  157.6533 H       1  UNL1        0.2105
      4 C         142.2676  143.7017  158.2375 C.3     1  UNL1        0.1204
      5 O         144.9685  142.6311  158.9852 O.2     1  UNL1       -0.2701
      6 C         143.7774  142.3290  159.8456 C.2     1  UNL1        0.2469
      7 N         142.4270  142.8643  159.4717 N.am    1  UNL1       -0.2985
      8 H         141.6453  142.6661  160.0364 H       1  UNL1        0.1498
      9 C         143.9368  141.4916  161.0798 C.2     1  UNL1        0.0665
     10 C         144.0316  139.9990  160.9663 C.2     1  UNL1        0.0931
     11 N         144.1910  139.1616  162.2006 N.am    1  UNL1       -0.1740
     12 C         144.2557  139.8169  163.5483 C.2     1  UNL1        0.2687
     13 O         144.4151  138.9795  164.7825 O.2     1  UNL1       -0.2680
     14 C         144.1610  141.3096  163.6618 C.2     1  UNL1        0.0521
     15 C         144.2257  141.9649  165.0095 C.2     1  UNL1        0.0062
     16 C         144.1310  143.4575  165.1230 C.2     1  UNL1        0.0256
     17 C         143.9716  144.2949  163.8887 C.2     1  UNL1        0.1220
     18 F         143.8769  145.7877  164.0023 F       1  UNL1       -0.2085
     19 C         143.9069  143.6397  162.5410 C.3     1  UNL1        0.0831
     20 C         144.0016  142.1470  162.4276 C.2     1  UNL1       -0.0053
     21 C         140.3412  145.3368  158.8424 C.3     1  UNL1        0.1034
     22 N         139.9329  144.8327  160.1949 N.3     1  UNL1       -0.2704
     23 C         139.1579  143.5542  160.3162 C.3     1  UNL1        0.0759
     24 C         138.7496  143.0502  161.6687 C.3     1  UNL1        0.0609
     25 C         139.1163  143.8246  162.8999 C.3     1  UNL1        0.1687
     26 C         139.8914  145.1031  162.7785 C.3     1  UNL1        0.0609
     27 C         140.2997  145.6072  161.4260 C.3     1  UNL1        0.0759
     28 O         138.7080  143.3206  164.2523 O.3     1  UNL1       -0.4790
     29 C         139.6350  142.4387  165.0353 C.ar    1  UNL1        0.1393
     30 C         139.9796  141.0713  164.5241 C.ar    1  UNL1        0.0378
     31 C         140.9065  140.1895  165.3071 C.ar    1  UNL1        0.0154
     32 C         141.4888  140.6750  166.6013 C.ar    1  UNL1        0.0684
     33 CL        142.4158  139.7931  167.3844 Cl      1  UNL1       -0.0814
     34 C         141.1442  142.0424  167.1126 C.ar    1  UNL1        0.0712
     35 CL        141.7266  142.5280  168.4069 Cl      1  UNL1       -0.0813
     36 C         140.2173  142.9243  166.3296 C.ar    1  UNL1        0.0491
@<TRIPOS>BOND
     1     5     6    2
     2     6     7   am
     3     7     4    1
     4     4     1    1
     5     1     2    1
     6     1    21    1
     7    21    22    1
     8    22    23    1
     9    23    24    1
    10    24    25    1
    11    25    28    1
    12    28    29    1
    13    29    30   ar
    14    30    31   ar
    15    31    32   ar
    16    32    33    1
    17    32    34   ar
    18    34    35    1
    19    34    36   ar
    20    25    26    1
    21    26    27    1
    22     6     9    1
    23     9    10    1
    24    10    11    2
    25    11    12    1
    26    12    13    2
    27    12    14    1
    28    14    15    2
    29    15    16    1
    30    16    17    2
    31    17    18    1
    32    17    19    1
    33    19    20    1
    34    27    22    1
    35    20     9    2
    36    36    29   ar
    37    20    14    1
    38     7     8    1
    39     2     3    1
@<TRIPOS>MOLECULE
*****
 36 39 0 0 0
SMALL
GASTEIGER

@<TRIPOS>ATOM
      1 C         141.4611  139.8985  169.7574 C.3     1  UNL1        0.1459
      2 O         141.6614  140.3491  171.1740 O.3     1  UNL1       -0.3813
      3 H         142.5895  140.2215  171.4257 H       1  UNL1        0.2105
      4 C         142.6180  139.3542  168.9728 C.3     1  UNL1        0.1204
      5 O         144.1870  137.4569  167.2585 O.2     1  UNL1       -0.2701
      6 C         143.4661  138.6133  166.6315 C.2     1  UNL1        0.2469
      7 N         142.6816  139.5619  167.4886 N.am    1  UNL1       -0.2985
      8 H         142.2084  140.3208  167.0770 H       1  UNL1        0.1498
      9 C         143.5297  138.8210  165.1473 C.2     1  UNL1        0.0665
     10 C         144.7764  139.3700  164.5195 C.2     1  UNL1        0.0931
     11 N         144.8400  139.5776  163.0353 N.am    1  UNL1       -0.1740
     12 C         143.6569  139.2364  162.1789 C.2     1  UNL1        0.2687
     13 O         143.7205  139.4441  160.6947 O.2     1  UNL1       -0.2680
     14 C         142.4100  138.6873  162.8066 C.2     1  UNL1        0.0521
     15 C         141.2268  138.3461  161.9502 C.2     1  UNL1        0.0062
     16 C         139.9800  137.7971  162.5779 C.2     1  UNL1        0.0256
     17 C         139.9164  137.5894  164.0621 C.2     1  UNL1        0.1220
     18 F         138.6695  137.0404  164.6898 F       1  UNL1       -0.2085
     19 C         141.0996  137.9307  164.9186 C.3     1  UNL1        0.0831
     20 C         142.3464  138.4796  164.2908 C.2     1  UNL1       -0.0053
     21 C         140.1041  139.9923  169.1253 C.3     1  UNL1        0.1034
     22 N         139.9148  140.7923  167.8706 N.3     1  UNL1       -0.2704
     23 C         140.4522  142.1901  167.7841 C.3     1  UNL1        0.0759
     24 C         140.2629  142.9901  166.5295 C.3     1  UNL1        0.0609
     25 C         139.5361  142.3923  165.3613 C.3     1  UNL1        0.1687
     26 C         138.9987  140.9946  165.4478 C.3     1  UNL1        0.0609
     27 C         139.1880  140.1946  166.7025 C.3     1  UNL1        0.0759
     28 O         139.3468  143.1923  164.1067 O.3     1  UNL1       -0.4790
     29 C         139.8514  142.6637  162.7968 C.ar    1  UNL1        0.1393
     30 C         138.9548  141.8322  161.9281 C.ar    1  UNL1        0.0378
     31 C         139.4594  141.3036  160.6181 C.ar    1  UNL1        0.0154
     32 C         140.8607  141.6064  160.1769 C.ar    1  UNL1        0.0684
     33 CL        141.3653  141.0777  158.8670 Cl      1  UNL1       -0.0814
     34 C         141.7573  142.4378  161.0456 C.ar    1  UNL1        0.0712
     35 CL        143.1587  142.7406  160.6045 Cl      1  UNL1       -0.0813
     36 C         141.2527  142.9665  162.3556 C.ar    1  UNL1        0.0491
@<TRIPOS>BOND
     1     5     6    2
     2     6     7   am
     3     7     4    1
     4     4     1    1
     5     1     2    1
     6     1    21    1
     7    21    22    1
     8    22    23    1
     9    23    24    1
    10    24    25    1
    11    25    28    1
    12    28    29    1
    13    29    30   ar
    14    30    31   ar
    15    31    32   ar
    16    32    33    1
    17    32    34   ar
    18    34    35    1
    19    34    36   ar
    20    25    26    1
    21    26    27    1
    22     6     9    1
    23     9    10    1
    24    10    11    2
    25    11    12    1
    26    12    13    2
    27    12    14    1
    28    14    15    2
    29    15    16    1
    30    16    17    2
    31    17    18    1
    32    17    19    1
    33    19    20    1
    34    27    22    1
    35    20     9    2
    36    36    29   ar
    37    20    14    1
    38     7     8    1
    39     2     3    1
@<TRIPOS>MOLECULE
*****
 36 39 0 0 0
SMALL
GASTEIGER

@<TRIPOS>ATOM
      1 C         142.0076  138.8429  158.1926 C.3     1  UNL1        0.1459
      2 O         142.8045  139.3901  157.0457 O.3     1  UNL1       -0.3813
      3 H         142.2683  140.0346  156.5578 H       1  UNL1        0.2105
      4 C         140.6034  139.3171  158.4242 C.3     1  UNL1        0.1204
      5 O         137.7537  139.8057  159.2245 O.2     1  UNL1       -0.2701
      6 C         138.8696  140.4473  159.9947 C.2     1  UNL1        0.2469
      7 N         140.2944  140.2030  159.5945 N.am    1  UNL1       -0.2985
      8 H         141.0268  140.6241  160.1000 H       1  UNL1        0.1498
      9 C         138.5606  141.3331  161.1651 C.2     1  UNL1        0.0665
     10 C         138.2835  142.7914  160.9494 C.2     1  UNL1        0.0931
     11 N         137.9745  143.6773  162.1197 N.am    1  UNL1       -0.1740
     12 C         137.9426  143.1049  163.5058 C.2     1  UNL1        0.2687
     13 O         137.6336  143.9907  164.6762 O.2     1  UNL1       -0.2680
     14 C         138.2196  141.6465  163.7216 C.2     1  UNL1        0.0521
     15 C         138.1877  141.0741  165.1077 C.2     1  UNL1        0.0062
     16 C         138.4647  139.6158  165.3234 C.2     1  UNL1        0.0256
     17 C         138.7737  138.7299  164.1530 C.2     1  UNL1        0.1220
     18 F         139.0508  137.2715  164.3688 F       1  UNL1       -0.2085
     19 C         138.8057  139.3023  162.7669 C.3     1  UNL1        0.0831
     20 C         138.5286  140.7606  162.5512 C.2     1  UNL1       -0.0053
     21 C         142.6147  137.8214  159.1080 C.3     1  UNL1        0.1034
     22 N         142.9064  138.1737  160.5366 N.3     1  UNL1       -0.2704
     23 C         144.0987  139.0197  160.8721 C.3     1  UNL1        0.0759
     24 C         144.3903  139.3719  162.3006 C.3     1  UNL1        0.0609
     25 C         143.4896  138.8781  163.3938 C.3     1  UNL1        0.1687
     26 C         142.2973  138.0321  163.0583 C.3     1  UNL1        0.0609
     27 C         142.0057  137.6798  161.6296 C.3     1  UNL1        0.0759
     28 O         143.7813  139.2303  164.8223 O.3     1  UNL1       -0.4790
     29 C         142.8956  140.1959  165.5526 C.ar    1  UNL1        0.1393
     30 C         142.4537  139.8956  166.9542 C.ar    1  UNL1        0.0378
     31 C         141.5680  140.8611  167.6845 C.ar    1  UNL1        0.0154
     32 C         141.1242  142.1269  167.0131 C.ar    1  UNL1        0.0684
     33 CL        140.2385  143.0925  167.7434 Cl      1  UNL1       -0.0814
     34 C         141.5661  142.4272  165.6116 C.ar    1  UNL1        0.0712
     35 CL        141.1223  143.6931  164.9401 Cl      1  UNL1       -0.0813
     36 C         142.4518  141.4617  164.8813 C.ar    1  UNL1        0.0491
@<TRIPOS>BOND
     1     5     6    2
     2     6     7   am
     3     7     4    1
     4     4     1    1
     5     1     2    1
     6     1    21    1
     7    21    22    1
     8    22    23    1
     9    23    24    1
    10    24    25    1
    11    25    28    1
    12    28    29    1
    13    29    30   ar
    14    30    31   ar
    15    31    32   ar
    16    32    33    1
    17    32    34   ar
    18    34    35    1
    19    34    36   ar
    20    25    26    1
    21    26    27    1
    22     6     9    1
    23     9    10    1
    24    10    11    2
    25    11    12    1
    26    12    13    2
    27    12    14    1
    28    14    15    2
    29    15    16    1
    30    16    17    2
    31    17    18    1
    32    17    19    1
    33    19    20    1
    34    27    22    1
    35    20     9    2
    36    36    29   ar
    37    20    14    1
    38     7     8    1
    39     2     3    1
@<TRIPOS>MOLECULE
*****
 36 39 0 0 0
SMALL
GASTEIGER

@<TRIPOS>ATOM
      1 C         142.8888  138.0364  160.5699 C.3     1  UNL1        0.1459
      2 O         143.1766  136.6074  160.2163 O.3     1  UNL1       -0.3813
      3 H         142.4608  136.2613  159.6607 H       1  UNL1        0.2105
      4 C         141.6399  138.6969  160.0656 C.3     1  UNL1        0.1204
      5 O         139.8642  139.8148  162.2097 O.2     1  UNL1       -0.2701
      6 C         140.5819  140.7401  161.2723 C.2     1  UNL1        0.2469
      7 N         141.4697  140.1811  160.2002 N.am    1  UNL1       -0.2985
      8 H         141.9408  140.7884  159.5850 H       1  UNL1        0.1498
      9 C         140.4117  142.2243  161.4069 C.2     1  UNL1        0.0665
     10 C         139.4201  142.9468  160.5439 C.2     1  UNL1        0.0931
     11 N         139.2499  144.4311  160.6786 N.am    1  UNL1       -0.1740
     12 C         140.0713  145.1927  161.6761 C.2     1  UNL1        0.2687
     13 O         139.9011  146.6770  161.8107 O.2     1  UNL1       -0.2680
     14 C         141.0629  144.4702  162.5391 C.2     1  UNL1        0.0521
     15 C         141.8843  145.2319  163.5367 C.2     1  UNL1        0.0062
     16 C         142.8758  144.5093  164.3996 C.2     1  UNL1        0.0256
     17 C         143.0460  143.0251  164.2650 C.2     1  UNL1        0.1220
     18 F         144.0376  142.3026  165.1280 F       1  UNL1       -0.2085
     19 C         142.2247  142.2634  163.2674 C.3     1  UNL1        0.0831
     20 C         141.2331  142.9860  162.4045 C.2     1  UNL1       -0.0053
     21 C         143.8498  138.8050  161.4277 C.3     1  UNL1        0.1034
     22 N         143.7284  138.7528  162.9218 N.3     1  UNL1       -0.2704
     23 C         144.8184  139.3188  163.7830 C.3     1  UNL1        0.0759
     24 C         144.6971  139.2666  165.2771 C.3     1  UNL1        0.0609
     25 C         143.4858  138.6485  165.9102 C.3     1  UNL1        0.1687
     26 C         142.3958  138.0825  165.0490 C.3     1  UNL1        0.0609
     27 C         142.5172  138.1347  163.5547 C.3     1  UNL1        0.0759
     28 O         143.3645  138.5963  167.4043 O.3     1  UNL1       -0.4790
     29 C         142.4952  139.5864  168.1212 C.ar    1  UNL1        0.1393
     30 C         142.2065  139.4110  169.5827 C.ar    1  UNL1        0.0378
     31 C         141.3372  140.4011  170.2996 C.ar    1  UNL1        0.0154
     32 C         140.7565  141.5666  169.5551 C.ar    1  UNL1        0.0684
     33 CL        139.8872  142.5567  170.2720 Cl      1  UNL1       -0.0814
     34 C         141.0451  141.7420  168.0936 C.ar    1  UNL1        0.0712
     35 CL        140.4644  142.9076  167.3490 Cl      1  UNL1       -0.0813
     36 C         141.9145  140.7519  167.3767 C.ar    1  UNL1        0.0491
@<TRIPOS>BOND
     1     5     6    2
     2     6     7   am
     3     7     4    1
     4     4     1    1
     5     1     2    1
     6     1    21    1
     7    21    22    1
     8    22    23    1
     9    23    24    1
    10    24    25    1
    11    25    28    1
    12    28    29    1
    13    29    30   ar
    14    30    31   ar
    15    31    32   ar
    16    32    33    1
    17    32    34   ar
    18    34    35    1
    19    34    36   ar
    20    25    26    1
    21    26    27    1
    22     6     9    1
    23     9    10    1
    24    10    11    2
    25    11    12    1
    26    12    13    2
    27    12    14    1
    28    14    15    2
    29    15    16    1
    30    16    17    2
    31    17    18    1
    32    17    19    1
    33    19    20    1
    34    27    22    1
    35    20     9    2
    36    36    29   ar
    37    20    14    1
    38     7     8    1
    39     2     3    1
@<TRIPOS>MOLECULE
*****
 36 39 0 0 0
SMALL
GASTEIGER

@<TRIPOS>ATOM
      1 C         142.0415  139.8597  169.9344 C.3     1  UNL1        0.1459
      2 O         142.6138  140.2299  171.2706 O.3     1  UNL1       -0.3813
      3 H         143.5497  139.9772  171.3027 H       1  UNL1        0.2105
      4 C         142.9096  139.2022  168.9028 C.3     1  UNL1        0.1204
      5 O         144.2869  137.3768  166.9609 O.2     1  UNL1       -0.2701
      6 C         143.1626  138.2548  166.4969 C.2     1  UNL1        0.2469
      7 N         142.4740  139.1675  167.4678 N.am    1  UNL1       -0.2985
      8 H         141.7361  139.7437  167.1633 H       1  UNL1        0.1498
      9 C         142.7270  138.2201  165.0619 C.2     1  UNL1        0.0665
     10 C         141.6064  137.3166  164.6400 C.2     1  UNL1        0.0931
     11 N         141.1708  137.2819  163.2051 N.am    1  UNL1       -0.1740
     12 C         141.8558  138.1506  162.1921 C.2     1  UNL1        0.2687
     13 O         141.4202  138.1158  160.7571 O.2     1  UNL1       -0.2680
     14 C         142.9764  139.0541  162.6140 C.2     1  UNL1        0.0521
     15 C         143.6614  139.9228  161.6010 C.2     1  UNL1        0.0062
     16 C         144.7819  140.8262  162.0230 C.2     1  UNL1        0.0256
     17 C         145.2175  140.8609  163.4579 C.2     1  UNL1        0.1220
     18 F         146.3382  141.7644  163.8799 F       1  UNL1       -0.2085
     19 C         144.5326  139.9922  164.4709 C.3     1  UNL1        0.0831
     20 C         143.4120  139.0888  164.0490 C.2     1  UNL1       -0.0053
     21 C         140.6011  140.1470  169.6298 C.3     1  UNL1        0.1034
     22 N         140.2255  140.8092  168.3374 N.3     1  UNL1       -0.2704
     23 C         139.4652  140.0435  167.2955 C.3     1  UNL1        0.0759
     24 C         139.0896  140.7057  166.0031 C.3     1  UNL1        0.0609
     25 C         139.4742  142.1338  165.7526 C.3     1  UNL1        0.1687
     26 C         140.2344  142.8996  166.7945 C.3     1  UNL1        0.0609
     27 C         140.6101  142.2373  168.0869 C.3     1  UNL1        0.0759
     28 O         139.0986  142.7961  164.4602 O.3     1  UNL1       -0.4790
     29 C         140.1147  142.9351  163.3656 C.ar    1  UNL1        0.1393
     30 C         141.2541  143.8987  163.5179 C.ar    1  UNL1        0.0378
     31 C         142.2702  144.0378  162.4234 C.ar    1  UNL1        0.0154
     32 C         142.1470  143.2132  161.1764 C.ar    1  UNL1        0.0684
     33 CL        143.1631  143.3523  160.0818 Cl      1  UNL1       -0.0814
     34 C         141.0076  142.2496  161.0241 C.ar    1  UNL1        0.0712
     35 CL        140.8843  141.4250  159.7772 Cl      1  UNL1       -0.0813
     36 C         139.9915  142.1106  162.1187 C.ar    1  UNL1        0.0491
@<TRIPOS>BOND
     1     5     6    2
     2     6     7   am
     3     7     4    1
     4     4     1    1
     5     1     2    1
     6     1    21    1
     7    21    22    1
     8    22    23    1
     9    23    24    1
    10    24    25    1
    11    25    28    1
    12    28    29    1
    13    29    30   ar
    14    30    31   ar
    15    31    32   ar
    16    32    33    1
    17    32    34   ar
    18    34    35    1
    19    34    36   ar
    20    25    26    1
    21    26    27    1
    22     6     9    1
    23     9    10    1
    24    10    11    2
    25    11    12    1
    26    12    13    2
    27    12    14    1
    28    14    15    2
    29    15    16    1
    30    16    17    2
    31    17    18    1
    32    17    19    1
    33    19    20    1
    34    27    22    1
    35    20     9    2
    36    36    29   ar
    37    20    14    1
    38     7     8    1
    39     2     3    1
