@<TRIPOS>MOLECULE
*****
 32 35 0 0 0
SMALL
GASTEIGER

@<TRIPOS>ATOM
      1 C         142.6930  138.4575  159.1954 C.ar    1  UNL1        0.1386
      2 C         141.9230  139.7034  159.5189 C.ar    1  UNL1        0.0382
      3 C         141.5100  139.9837  160.9334 C.ar    1  UNL1        0.0180
      4 C         141.8669  139.0180  162.0243 C.ar    1  UNL1        0.0541
      5 C         142.6368  137.7720  161.7007 C.ar    1  UNL1        0.0180
      6 C         143.0499  137.4918  160.2863 C.ar    1  UNL1        0.0382
      7 N         141.4538  139.2983  163.4389 N.am    1  UNL1       -0.2555
      8 C         142.2740  140.2210  164.2909 C.3     1  UNL1        0.1197
      9 C         141.8609  140.5013  165.7054 C.3     1  UNL1        0.1160
     10 N         140.6276  139.8589  166.2679 N.am    1  UNL1       -0.2660
     11 C         140.2145  140.1392  167.6823 C.2     1  UNL1        0.2494
     12 O         138.9812  139.4968  168.2448 O.2     1  UNL1       -0.2699
     13 C         139.8074  138.9362  165.4158 C.3     1  UNL1        0.1799
     14 C         140.2205  138.6560  164.0013 C.2     1  UNL1        0.2497
     15 O         139.4003  137.7333  163.1492 O.2     1  UNL1       -0.2727
     16 C         141.0347  141.0618  168.5343 C.ar    1  UNL1        0.0537
     17 C         142.3814  140.6258  169.0305 C.ar    1  UNL1        0.0068
     18 C         143.2016  141.5485  169.8826 C.ar    1  UNL1        0.0298
     19 C         142.6751  142.9072  170.2384 C.ar    1  UNL1        0.1401
     20 F         143.4953  143.8299  171.0904 F       1  UNL1       -0.2042
     21 C         141.3284  143.3433  169.7422 C.ar    1  UNL1        0.0298
     22 C         140.5082  142.4206  168.8902 C.ar    1  UNL1        0.0068
     23 O         143.1061  138.1771  157.7808 O.3     1  UNL1       -0.4754
     24 C         142.4967  137.0269  157.0355 C.3     1  UNL1        0.2068
     25 C         143.3680  135.9171  156.5263 C.3     1  UNL1        0.0646
     26 C         143.3548  134.5807  157.2072 C.3     1  UNL1        0.0759
     27 C         145.4800  132.2543  158.0562 C.3     1  UNL1        0.0173
     28 C         144.6370  132.2683  156.8155 C.3     1  UNL1        0.0576
     29 C         144.6230  131.2153  155.7473 C.3     1  UNL1        0.0174
     30 C         143.6374  131.6339  154.6968 C.3     1  UNL1        0.0187
     31 C         143.0424  132.9455  155.1159 C.3     1  UNL1        0.0721
     32 N         143.6602  133.3376  156.4253 N.3     1  UNL1       -0.2738
@<TRIPOS>BOND
     1    28    27    1
     2    28    29    1
     3    29    30    1
     4    30    31    1
     5    31    32    1
     6    32    26    1
     7    26    25    1
     8    25    24    1
     9    24    23    1
    10    23     1    1
    11     1     2   ar
    12     2     3   ar
    13     3     4   ar
    14     4     7    1
    15     7     8    1
    16     8     9    1
    17     9    10    1
    18    10    11   am
    19    11    12    2
    20    11    16    1
    21    16    17   ar
    22    17    18   ar
    23    18    19   ar
    24    19    20    1
    25    19    21   ar
    26    21    22   ar
    27    10    13    1
    28    13    14    1
    29    14    15    2
    30     4     5   ar
    31     5     6   ar
    32    32    28    1
    33     6     1   ar
    34    14     7   am
    35    22    16   ar
@<TRIPOS>MOLECULE
*****
 32 35 0 0 0
SMALL
GASTEIGER

@<TRIPOS>ATOM
      1 C         139.4779  141.7769  158.7421 C.ar    1  UNL1        0.1386
      2 C         138.4946  142.4685  159.6392 C.ar    1  UNL1        0.0382
      3 C         138.5544  142.2556  161.1227 C.ar    1  UNL1        0.0180
      4 C         139.5974  141.3512  161.7092 C.ar    1  UNL1        0.0541
      5 C         140.5807  140.6596  160.8122 C.ar    1  UNL1        0.0180
      6 C         140.5210  140.8725  159.3286 C.ar    1  UNL1        0.0382
      7 N         139.6571  141.1383  163.1929 N.am    1  UNL1       -0.2555
      8 C         140.5856  141.9648  164.0324 C.3     1  UNL1        0.1197
      9 C         140.6453  141.7519  165.5161 C.3     1  UNL1        0.1160
     10 N         139.7765  140.7126  166.1602 N.am    1  UNL1       -0.2660
     11 C         139.8362  140.4997  167.6438 C.2     1  UNL1        0.2494
     12 O         138.9673  139.4603  168.2879 O.2     1  UNL1       -0.2699
     13 C         138.8480  139.8860  165.3206 C.3     1  UNL1        0.1799
     14 C         138.7883  140.0989  163.8370 C.2     1  UNL1        0.2497
     15 O         137.8598  139.2724  162.9974 O.2     1  UNL1       -0.2727
     16 C         140.7647  141.3261  168.4832 C.ar    1  UNL1        0.0537
     17 C         140.2874  142.6165  169.0809 C.ar    1  UNL1        0.0068
     18 C         141.2159  143.4430  169.9204 C.ar    1  UNL1        0.0298
     19 C         142.6217  142.9791  170.1623 C.ar    1  UNL1        0.1401
     20 F         143.5502  143.8056  171.0017 F       1  UNL1       -0.2042
     21 C         143.0990  141.6887  169.5646 C.ar    1  UNL1        0.0298
     22 C         142.1705  140.8623  168.7252 C.ar    1  UNL1        0.0068
     23 O         139.4182  141.9898  157.2584 O.3     1  UNL1       -0.4754
     24 C         140.1279  143.1571  156.6390 C.3     1  UNL1        0.2068
     25 C         139.7873  144.5543  157.0656 C.3     1  UNL1        0.0646
     26 C         140.7864  145.3689  157.8325 C.3     1  UNL1        0.0759
     27 C         143.1349  143.3390  158.8391 C.3     1  UNL1        0.0173
     28 C         142.1805  144.0892  159.7202 C.3     1  UNL1        0.0576
     29 C         142.1381  144.0380  161.2187 C.3     1  UNL1        0.0174
     30 C         141.0324  144.9395  161.6823 C.3     1  UNL1        0.0187
     31 C         140.3915  145.5478  160.4702 C.3     1  UNL1        0.0721
     32 N         141.1010  145.0223  159.2576 N.3     1  UNL1       -0.2738
@<TRIPOS>BOND
     1    28    27    1
     2    28    29    1
     3    29    30    1
     4    30    31    1
     5    31    32    1
     6    32    26    1
     7    26    25    1
     8    25    24    1
     9    24    23    1
    10    23     1    1
    11     1     2   ar
    12     2     3   ar
    13     3     4   ar
    14     4     7    1
    15     7     8    1
    16     8     9    1
    17     9    10    1
    18    10    11   am
    19    11    12    2
    20    11    16    1
    21    16    17   ar
    22    17    18   ar
    23    18    19   ar
    24    19    20    1
    25    19    21   ar
    26    21    22   ar
    27    10    13    1
    28    13    14    1
    29    14    15    2
    30     4     5   ar
    31     5     6   ar
    32    32    28    1
    33     6     1   ar
    34    14     7   am
    35    22    16   ar
@<TRIPOS>MOLECULE
*****
 32 35 0 0 0
SMALL
GASTEIGER

@<TRIPOS>ATOM
      1 C         141.4514  138.4745  159.3636 C.ar    1  UNL1        0.1386
      2 C         140.3160  139.3666  159.7695 C.ar    1  UNL1        0.0382
      3 C         140.0656  139.6484  161.2213 C.ar    1  UNL1        0.0180
      4 C         140.9506  139.0379  162.2673 C.ar    1  UNL1        0.0541
      5 C         142.0860  138.1458  161.8615 C.ar    1  UNL1        0.0180
      6 C         142.3365  137.8640  160.4096 C.ar    1  UNL1        0.0382
      7 N         140.7001  139.3197  163.7192 N.am    1  UNL1       -0.2555
      8 C         141.6032  140.2541  164.4685 C.3     1  UNL1        0.1197
      9 C         141.3527  140.5358  165.9204 C.3     1  UNL1        0.1160
     10 N         140.1992  139.8832  166.6230 N.am    1  UNL1       -0.2660
     11 C         139.9487  140.1649  168.0748 C.2     1  UNL1        0.2494
     12 O         138.7952  139.5123  168.7773 O.2     1  UNL1       -0.2699
     13 C         139.2962  138.9488  165.8736 C.3     1  UNL1        0.1799
     14 C         139.5467  138.6671  164.4217 C.2     1  UNL1        0.2497
     15 O         138.6436  137.7327  163.6724 O.2     1  UNL1       -0.2727
     16 C         140.8517  141.0993  168.8241 C.ar    1  UNL1        0.0537
     17 C         140.3990  142.4965  169.1289 C.ar    1  UNL1        0.0068
     18 C         141.3021  143.4309  169.8782 C.ar    1  UNL1        0.0298
     19 C         142.6578  142.9680  170.3227 C.ar    1  UNL1        0.1401
     20 F         143.5608  143.9024  171.0720 F       1  UNL1       -0.2042
     21 C         143.1106  141.5709  170.0179 C.ar    1  UNL1        0.0298
     22 C         142.2076  140.6365  169.2686 C.ar    1  UNL1        0.0068
     23 O         141.7019  138.1927  157.9117 O.3     1  UNL1       -0.4754
     24 C         142.9722  138.6600  157.2653 C.3     1  UNL1        0.2068
     25 C         143.3431  140.1129  157.3043 C.3     1  UNL1        0.0646
     26 C         144.0163  140.6828  158.5176 C.3     1  UNL1        0.0759
     27 C         144.4336  140.7802  161.7526 C.3     1  UNL1        0.0173
     28 C         143.4273  141.5699  160.9693 C.3     1  UNL1        0.0576
     29 C         142.4361  142.5430  161.5355 C.3     1  UNL1        0.0174
     30 C         141.6316  143.0997  160.3984 C.3     1  UNL1        0.0187
     31 C         142.1256  142.4706  159.1295 C.3     1  UNL1        0.0721
     32 N         143.2354  141.5251  159.4823 N.3     1  UNL1       -0.2738
@<TRIPOS>BOND
     1    28    27    1
     2    28    29    1
     3    29    30    1
     4    30    31    1
     5    31    32    1
     6    32    26    1
     7    26    25    1
     8    25    24    1
     9    24    23    1
    10    23     1    1
    11     1     2   ar
    12     2     3   ar
    13     3     4   ar
    14     4     7    1
    15     7     8    1
    16     8     9    1
    17     9    10    1
    18    10    11   am
    19    11    12    2
    20    11    16    1
    21    16    17   ar
    22    17    18   ar
    23    18    19   ar
    24    19    20    1
    25    19    21   ar
    26    21    22   ar
    27    10    13    1
    28    13    14    1
    29    14    15    2
    30     4     5   ar
    31     5     6   ar
    32    32    28    1
    33     6     1   ar
    34    14     7   am
    35    22    16   ar
@<TRIPOS>MOLECULE
*****
 32 35 0 0 0
SMALL
GASTEIGER

@<TRIPOS>ATOM
      1 C         143.2938  138.7824  166.1300 C.ar    1  UNL1        0.1386
      2 C         144.5247  139.1271  165.3452 C.ar    1  UNL1        0.0382
      3 C         144.4752  139.1546  163.8463 C.ar    1  UNL1        0.0180
      4 C         143.1948  138.8373  163.1322 C.ar    1  UNL1        0.0541
      5 C         141.9639  138.4925  163.9170 C.ar    1  UNL1        0.0180
      6 C         142.0134  138.4651  165.4159 C.ar    1  UNL1        0.0382
      7 N         143.1454  138.8647  161.6332 N.am    1  UNL1       -0.2555
      8 C         142.8237  137.6139  160.8704 C.3     1  UNL1        0.1197
      9 C         142.7743  137.6413  159.3714 C.3     1  UNL1        0.1160
     10 N         143.0465  138.9197  158.6353 N.am    1  UNL1       -0.2660
     11 C         142.9971  138.9472  157.1364 C.2     1  UNL1        0.2494
     12 O         143.2693  140.2255  156.4003 O.2     1  UNL1       -0.2699
     13 C         143.3682  140.1705  159.3982 C.3     1  UNL1        0.1799
     14 C         143.4176  140.1430  160.8971 C.2     1  UNL1        0.2497
     15 O         143.7392  141.3939  161.6600 O.2     1  UNL1       -0.2727
     16 C         142.6755  137.6963  156.3736 C.ar    1  UNL1        0.0537
     17 C         141.2462  137.3237  156.1125 C.ar    1  UNL1        0.0068
     18 C         140.9246  136.0728  155.3496 C.ar    1  UNL1        0.0298
     19 C         142.0323  135.1946  154.8479 C.ar    1  UNL1        0.1401
     20 F         141.7106  133.9438  154.0850 F       1  UNL1       -0.2042
     21 C         143.4616  135.5673  155.1089 C.ar    1  UNL1        0.0298
     22 C         143.7832  136.8181  155.8718 C.ar    1  UNL1        0.0068
     23 O         143.3432  138.7549  167.6290 O.3     1  UNL1       -0.4754
     24 C         142.4128  139.6204  168.4260 C.3     1  UNL1        0.2068
     25 C         142.8617  140.9737  168.8921 C.3     1  UNL1        0.0646
     26 C         142.3636  142.2083  168.2010 C.3     1  UNL1        0.0759
     27 C         143.9908  142.7965  165.4341 C.3     1  UNL1        0.0173
     28 C         142.5518  142.3867  165.5406 C.3     1  UNL1        0.0576
     29 C         141.6081  142.1753  164.3940 C.3     1  UNL1        0.0174
     30 C         140.2769  141.7742  164.9571 C.3     1  UNL1        0.0187
     31 C         140.3979  141.7378  166.4518 C.3     1  UNL1        0.0721
     32 N         141.8038  142.1163  166.8124 N.3     1  UNL1       -0.2738
@<TRIPOS>BOND
     1    28    27    1
     2    28    29    1
     3    29    30    1
     4    30    31    1
     5    31    32    1
     6    32    26    1
     7    26    25    1
     8    25    24    1
     9    24    23    1
    10    23     1    1
    11     1     2   ar
    12     2     3   ar
    13     3     4   ar
    14     4     7    1
    15     7     8    1
    16     8     9    1
    17     9    10    1
    18    10    11   am
    19    11    12    2
    20    11    16    1
    21    16    17   ar
    22    17    18   ar
    23    18    19   ar
    24    19    20    1
    25    19    21   ar
    26    21    22   ar
    27    10    13    1
    28    13    14    1
    29    14    15    2
    30     4     5   ar
    31     5     6   ar
    32    32    28    1
    33     6     1   ar
    34    14     7   am
    35    22    16   ar
@<TRIPOS>MOLECULE
*****
 32 35 0 0 0
SMALL
GASTEIGER

@<TRIPOS>ATOM
      1 C         144.1089  141.7352  161.1507 C.ar    1  UNL1        0.1386
      2 C         144.6578  142.2795  159.8652 C.ar    1  UNL1        0.0382
      3 C         143.7651  143.0426  158.9321 C.ar    1  UNL1        0.0180
      4 C         142.3237  143.2616  159.2845 C.ar    1  UNL1        0.0541
      5 C         141.7748  142.7174  160.5700 C.ar    1  UNL1        0.0180
      6 C         142.6674  141.9542  161.5031 C.ar    1  UNL1        0.0382
      7 N         141.4310  144.0248  158.3513 N.am    1  UNL1       -0.2555
      8 C         141.6778  145.4832  158.1024 C.3     1  UNL1        0.1197
      9 C         140.7852  146.2464  157.1692 C.3     1  UNL1        0.1160
     10 N         139.6458  145.5511  156.4849 N.am    1  UNL1       -0.2660
     11 C         138.7532  146.3143  155.5517 C.2     1  UNL1        0.2494
     12 O         137.6137  145.6189  154.8675 O.2     1  UNL1       -0.2699
     13 C         139.3990  144.0926  156.7338 C.3     1  UNL1        0.1799
     14 C         140.2916  143.3295  157.6670 C.2     1  UNL1        0.2497
     15 O         140.0448  141.8710  157.9159 O.2     1  UNL1       -0.2727
     16 C         139.0000  147.7727  155.3029 C.ar    1  UNL1        0.0537
     17 C         139.8400  148.2030  154.1370 C.ar    1  UNL1        0.0068
     18 C         140.0868  149.6615  153.8882 C.ar    1  UNL1        0.0298
     19 C         139.4936  150.6897  154.8052 C.ar    1  UNL1        0.1401
     20 F         139.7404  152.1481  154.5563 F       1  UNL1       -0.2042
     21 C         138.6536  150.2594  155.9710 C.ar    1  UNL1        0.0298
     22 C         138.4068  148.8010  156.2199 C.ar    1  UNL1        0.0068
     23 O         145.0015  140.9720  162.0839 O.3     1  UNL1       -0.4754
     24 C         145.3314  141.5351  163.4345 C.3     1  UNL1        0.2068
     25 C         144.3719  141.3614  164.5743 C.3     1  UNL1        0.0646
     26 C         143.9128  142.5558  165.3569 C.3     1  UNL1        0.0759
     27 C         143.7496  145.0743  163.2882 C.3     1  UNL1        0.0173
     28 C         142.5909  144.4418  164.0003 C.3     1  UNL1        0.0576
     29 C         141.1536  144.8559  163.8866 C.3     1  UNL1        0.0174
     30 C         140.3404  143.9541  164.7673 C.3     1  UNL1        0.0187
     31 C         141.2750  142.9828  165.4252 C.3     1  UNL1        0.0721
     32 N         142.6659  143.2842  164.9512 N.3     1  UNL1       -0.2738
@<TRIPOS>BOND
     1    28    27    1
     2    28    29    1
     3    29    30    1
     4    30    31    1
     5    31    32    1
     6    32    26    1
     7    26    25    1
     8    25    24    1
     9    24    23    1
    10    23     1    1
    11     1     2   ar
    12     2     3   ar
    13     3     4   ar
    14     4     7    1
    15     7     8    1
    16     8     9    1
    17     9    10    1
    18    10    11   am
    19    11    12    2
    20    11    16    1
    21    16    17   ar
    22    17    18   ar
    23    18    19   ar
    24    19    20    1
    25    19    21   ar
    26    21    22   ar
    27    10    13    1
    28    13    14    1
    29    14    15    2
    30     4     5   ar
    31     5     6   ar
    32    32    28    1
    33     6     1   ar
    34    14     7   am
    35    22    16   ar
@<TRIPOS>MOLECULE
*****
 32 35 0 0 0
SMALL
GASTEIGER

@<TRIPOS>ATOM
      1 C         139.9909  143.1553  161.9534 C.ar    1  UNL1        0.1386
      2 C         141.0631  142.2161  162.4206 C.ar    1  UNL1        0.0382
      3 C         141.6717  141.2362  161.4617 C.ar    1  UNL1        0.0180
      4 C         141.2080  141.1955  160.0358 C.ar    1  UNL1        0.0541
      5 C         140.1358  142.1347  159.5686 C.ar    1  UNL1        0.0180
      6 C         139.5273  143.1146  160.5275 C.ar    1  UNL1        0.0382
      7 N         141.8167  140.2155  159.0769 N.am    1  UNL1       -0.2555
      8 C         141.1772  138.8748  158.8680 C.3     1  UNL1        0.1197
      9 C         141.7859  137.8949  157.9091 C.3     1  UNL1        0.1160
     10 N         143.0339  138.2556  157.1593 N.am    1  UNL1       -0.2660
     11 C         143.6425  137.2757  156.2005 C.2     1  UNL1        0.2494
     12 O         144.8906  137.6365  155.4507 O.2     1  UNL1       -0.2699
     13 C         143.6733  139.5964  157.3683 C.3     1  UNL1        0.1799
     14 C         143.0647  140.5763  158.3271 C.2     1  UNL1        0.2497
     15 O         143.7041  141.9170  158.5361 O.2     1  UNL1       -0.2727
     16 C         143.0031  135.9351  155.9915 C.ar    1  UNL1        0.0537
     17 C         141.9651  135.7575  154.9234 C.ar    1  UNL1        0.0068
     18 C         141.3257  134.4167  154.7144 C.ar    1  UNL1        0.0298
     19 C         141.7243  133.2536  155.5736 C.ar    1  UNL1        0.1401
     20 F         141.0849  131.9130  155.3647 F       1  UNL1       -0.2042
     21 C         142.7623  133.4312  156.6418 C.ar    1  UNL1        0.0298
     22 C         143.4017  134.7719  156.8508 C.ar    1  UNL1        0.0068
     23 O         139.3823  144.1353  162.9123 O.3     1  UNL1       -0.4754
     24 C         138.0337  143.8617  163.5092 C.3     1  UNL1        0.2068
     25 C         137.7354  142.5172  164.1038 C.3     1  UNL1        0.0646
     26 C         137.1789  141.4228  163.2421 C.3     1  UNL1        0.0759
     27 C         138.3244  139.4908  165.6095 C.3     1  UNL1        0.0173
     28 C         138.4815  139.2662  164.1348 C.3     1  UNL1        0.0576
     29 C         139.1928  138.1140  163.4893 C.3     1  UNL1        0.0174
     30 C         139.1059  138.2900  162.0021 C.3     1  UNL1        0.0187
     31 C         138.3409  139.5509  161.7286 C.3     1  UNL1        0.0721
     32 N         137.9550  140.1542  163.0466 N.3     1  UNL1       -0.2738
@<TRIPOS>BOND
     1    28    27    1
     2    28    29    1
     3    29    30    1
     4    30    31    1
     5    31    32    1
     6    32    26    1
     7    26    25    1
     8    25    24    1
     9    24    23    1
    10    23     1    1
    11     1     2   ar
    12     2     3   ar
    13     3     4   ar
    14     4     7    1
    15     7     8    1
    16     8     9    1
    17     9    10    1
    18    10    11   am
    19    11    12    2
    20    11    16    1
    21    16    17   ar
    22    17    18   ar
    23    18    19   ar
    24    19    20    1
    25    19    21   ar
    26    21    22   ar
    27    10    13    1
    28    13    14    1
    29    14    15    2
    30     4     5   ar
    31     5     6   ar
    32    32    28    1
    33     6     1   ar
    34    14     7   am
    35    22    16   ar
@<TRIPOS>MOLECULE
*****
 32 35 0 0 0
SMALL
GASTEIGER

@<TRIPOS>ATOM
      1 C         142.5307  141.5774  158.6691 C.ar    1  UNL1        0.1386
      2 C         143.3953  142.3852  159.5910 C.ar    1  UNL1        0.0382
      3 C         143.3783  142.1128  161.0659 C.ar    1  UNL1        0.0180
      4 C         142.4966  141.0326  161.6190 C.ar    1  UNL1        0.0541
      5 C         141.6320  140.2248  160.6971 C.ar    1  UNL1        0.0180
      6 C         141.6490  140.4972  159.2222 C.ar    1  UNL1        0.0382
      7 N         142.4796  140.7602  163.0940 N.am    1  UNL1       -0.2555
      8 C         141.6654  141.6277  164.0075 C.3     1  UNL1        0.1197
      9 C         141.6483  141.3553  165.4825 C.3     1  UNL1        0.1160
     10 N         142.4456  140.2154  166.0440 N.am    1  UNL1       -0.2660
     11 C         142.4286  139.9430  167.5189 C.2     1  UNL1        0.2494
     12 O         143.2258  138.8032  168.0803 O.2     1  UNL1       -0.2699
     13 C         143.2598  139.3480  165.1303 C.3     1  UNL1        0.1799
     14 C         143.2768  139.6204  163.6554 C.2     1  UNL1        0.2497
     15 O         144.0911  138.7529  162.7418 O.2     1  UNL1       -0.2727
     16 C         141.6144  140.8105  168.4324 C.ar    1  UNL1        0.0537
     17 C         140.2781  140.3370  168.9224 C.ar    1  UNL1        0.0068
     18 C         139.4638  141.2045  169.8360 C.ar    1  UNL1        0.0298
     19 C         139.9859  142.5454  170.2595 C.ar    1  UNL1        0.1401
     20 F         139.1717  143.4128  171.1730 F       1  UNL1       -0.2042
     21 C         141.3222  143.0189  169.7694 C.ar    1  UNL1        0.0298
     22 C         142.1364  142.1514  168.8559 C.ar    1  UNL1        0.0068
     23 O         142.5477  141.8498  157.1941 O.3     1  UNL1       -0.4754
     24 C         141.2598  142.0674  156.4567 C.3     1  UNL1        0.2068
     25 C         140.7020  143.4526  156.3140 C.3     1  UNL1        0.0646
     26 C         139.4674  143.8455  157.0698 C.3     1  UNL1        0.0759
     27 C         141.0829  145.2426  159.5371 C.3     1  UNL1        0.0173
     28 C         140.0763  144.1369  159.6562 C.3     1  UNL1        0.0576
     29 C         139.6355  143.4793  160.9302 C.3     1  UNL1        0.0174
     30 C         138.6205  142.4307  160.5836 C.3     1  UNL1        0.0187
     31 C         138.4340  142.4402  159.0952 C.3     1  UNL1        0.0721
     32 N         139.3337  143.4947  158.5221 N.3     1  UNL1       -0.2738
@<TRIPOS>BOND
     1    28    27    1
     2    28    29    1
     3    29    30    1
     4    30    31    1
     5    31    32    1
     6    32    26    1
     7    26    25    1
     8    25    24    1
     9    24    23    1
    10    23     1    1
    11     1     2   ar
    12     2     3   ar
    13     3     4   ar
    14     4     7    1
    15     7     8    1
    16     8     9    1
    17     9    10    1
    18    10    11   am
    19    11    12    2
    20    11    16    1
    21    16    17   ar
    22    17    18   ar
    23    18    19   ar
    24    19    20    1
    25    19    21   ar
    26    21    22   ar
    27    10    13    1
    28    13    14    1
    29    14    15    2
    30     4     5   ar
    31     5     6   ar
    32    32    28    1
    33     6     1   ar
    34    14     7   am
    35    22    16   ar
@<TRIPOS>MOLECULE
*****
 32 35 0 0 0
SMALL
GASTEIGER

@<TRIPOS>ATOM
      1 C         139.4926  140.3730  163.3832 C.ar    1  UNL1        0.1386
      2 C         138.2886  141.2167  163.0855 C.ar    1  UNL1        0.0382
      3 C         138.1026  141.8015  161.7168 C.ar    1  UNL1        0.0180
      4 C         139.1205  141.5428  160.6459 C.ar    1  UNL1        0.0541
      5 C         140.3245  140.6991  160.9436 C.ar    1  UNL1        0.0180
      6 C         140.5105  140.1142  162.3123 C.ar    1  UNL1        0.0382
      7 N         138.9345  142.1277  159.2772 N.am    1  UNL1       -0.2555
      8 C         139.5754  143.4381  158.9281 C.3     1  UNL1        0.1197
      9 C         139.3893  144.0230  157.5594 C.3     1  UNL1        0.1160
     10 N         138.5623  143.2975  156.5398 N.am    1  UNL1       -0.2660
     11 C         138.3762  143.8823  155.1711 C.2     1  UNL1        0.2494
     12 O         137.5492  143.1568  154.1516 O.2     1  UNL1       -0.2699
     13 C         137.9213  141.9870  156.8889 C.3     1  UNL1        0.1799
     14 C         138.1074  141.4021  158.2576 C.2     1  UNL1        0.2497
     15 O         137.4664  140.0916  158.6067 O.2     1  UNL1       -0.2727
     16 C         139.0172  145.1928  154.8221 C.ar    1  UNL1        0.0537
     17 C         140.2937  145.2172  154.0347 C.ar    1  UNL1        0.0068
     18 C         140.9346  146.5277  153.6856 C.ar    1  UNL1        0.0298
     19 C         140.2991  147.8137  154.1239 C.ar    1  UNL1        0.1401
     20 F         140.9400  149.1241  153.7748 F       1  UNL1       -0.2042
     21 C         139.0226  147.7893  154.9113 C.ar    1  UNL1        0.0298
     22 C         138.3816  146.4789  155.2604 C.ar    1  UNL1        0.0068
     23 O         139.6786  139.7881  164.7519 O.3     1  UNL1       -0.4754
     24 C         140.6906  140.3784  165.6886 C.3     1  UNL1        0.2068
     25 C         140.3600  141.6182  166.4655 C.3     1  UNL1        0.0646
     26 C         141.0175  142.9202  166.1157 C.3     1  UNL1        0.0759
     27 C         138.4999  144.8875  165.4520 C.3     1  UNL1        0.0173
     28 C         139.5758  144.4775  164.4906 C.3     1  UNL1        0.0576
     29 C         139.6832  144.8998  163.0553 C.3     1  UNL1        0.0174
     30 C         140.9069  144.2564  162.4732 C.3     1  UNL1        0.0187
     31 C         141.5557  143.4366  163.5488 C.3     1  UNL1        0.0721
     32 N         140.7330  143.5732  164.7956 N.3     1  UNL1       -0.2738
@<TRIPOS>BOND
     1    28    27    1
     2    28    29    1
     3    29    30    1
     4    30    31    1
     5    31    32    1
     6    32    26    1
     7    26    25    1
     8    25    24    1
     9    24    23    1
    10    23     1    1
    11     1     2   ar
    12     2     3   ar
    13     3     4   ar
    14     4     7    1
    15     7     8    1
    16     8     9    1
    17     9    10    1
    18    10    11   am
    19    11    12    2
    20    11    16    1
    21    16    17   ar
    22    17    18   ar
    23    18    19   ar
    24    19    20    1
    25    19    21   ar
    26    21    22   ar
    27    10    13    1
    28    13    14    1
    29    14    15    2
    30     4     5   ar
    31     5     6   ar
    32    32    28    1
    33     6     1   ar
    34    14     7   am
    35    22    16   ar
@<TRIPOS>MOLECULE
*****
 32 35 0 0 0
SMALL
GASTEIGER

@<TRIPOS>ATOM
      1 C         142.9880  138.9541  166.4835 C.ar    1  UNL1        0.1386
      2 C         144.2571  138.8541  165.6903 C.ar    1  UNL1        0.0382
      3 C         144.2153  138.9469  164.1938 C.ar    1  UNL1        0.0180
      4 C         142.9045  139.1397  163.4905 C.ar    1  UNL1        0.0541
      5 C         141.6354  139.2396  164.2838 C.ar    1  UNL1        0.0180
      6 C         141.6771  139.1468  165.7803 C.ar    1  UNL1        0.0382
      7 N         142.8628  139.2325  161.9939 N.am    1  UNL1       -0.2555
      8 C         143.7287  140.2275  161.2798 C.3     1  UNL1        0.1197
      9 C         143.6870  140.3203  159.7832 C.3     1  UNL1        0.1160
     10 N         142.7794  139.4180  159.0008 N.am    1  UNL1       -0.2660
     11 C         142.7377  139.5108  157.5043 C.2     1  UNL1        0.2494
     12 O         141.8301  138.6084  156.7219 O.2     1  UNL1       -0.2699
     13 C         141.9135  138.4229  159.7150 C.3     1  UNL1        0.1799
     14 C         141.9552  138.3301  161.2115 C.2     1  UNL1        0.2497
     15 O         141.0893  137.3350  161.9258 O.2     1  UNL1       -0.2727
     16 C         143.6036  140.5058  156.7901 C.ar    1  UNL1        0.0537
     17 C         143.0754  141.8758  156.4834 C.ar    1  UNL1        0.0068
     18 C         143.9414  142.8709  155.7692 C.ar    1  UNL1        0.0298
     19 C         145.3354  142.4960  155.3618 C.ar    1  UNL1        0.1401
     20 F         146.2013  143.4911  154.6477 F       1  UNL1       -0.2042
     21 C         145.8636  141.1260  155.6686 C.ar    1  UNL1        0.0298
     22 C         144.9977  140.1309  156.3827 C.ar    1  UNL1        0.0068
     23 O         143.0297  138.8613  167.9801 O.3     1  UNL1       -0.4754
     24 C         142.4313  139.9534  168.8162 C.3     1  UNL1        0.2068
     25 C         142.8509  141.3775  168.6019 C.3     1  UNL1        0.0646
     26 C         141.9967  142.2953  167.7787 C.3     1  UNL1        0.0759
     27 C         139.8552  142.9441  165.4032 C.3     1  UNL1        0.0173
     28 C         141.3424  142.8313  165.2430 C.3     1  UNL1        0.0576
     29 C         142.1063  142.9970  163.9628 C.3     1  UNL1        0.0174
     30 C         143.5628  142.8011  164.2634 C.3     1  UNL1        0.0187
     31 C         143.6990  142.5145  165.7295 C.3     1  UNL1        0.0721
     32 N         142.3267  142.5331  166.3349 N.3     1  UNL1       -0.2738
@<TRIPOS>BOND
     1    28    27    1
     2    28    29    1
     3    29    30    1
     4    30    31    1
     5    31    32    1
     6    32    26    1
     7    26    25    1
     8    25    24    1
     9    24    23    1
    10    23     1    1
    11     1     2   ar
    12     2     3   ar
    13     3     4   ar
    14     4     7    1
    15     7     8    1
    16     8     9    1
    17     9    10    1
    18    10    11   am
    19    11    12    2
    20    11    16    1
    21    16    17   ar
    22    17    18   ar
    23    18    19   ar
    24    19    20    1
    25    19    21   ar
    26    21    22   ar
    27    10    13    1
    28    13    14    1
    29    14    15    2
    30     4     5   ar
    31     5     6   ar
    32    32    28    1
    33     6     1   ar
    34    14     7   am
    35    22    16   ar
