@<TRIPOS>MOLECULE
*****
 38 42 0 0 0
SMALL
GASTEIGER

@<TRIPOS>ATOM
      1 N         142.1439  138.3101  159.9805 N.am    1  UNL1       -0.2794
      2 C         140.6834  138.4455  160.2944 C.2     1  UNL1        0.2495
      3 O         139.6722  138.4140  159.1869 O.2     1  UNL1       -0.2698
      4 H         142.8076  138.3308  160.7074 H       1  UNL1        0.1552
      5 N         142.9608  140.7086  158.3743 N.pl3   1  UNL1       -0.3560
      6 C         143.0017  139.3425  157.7560 C.ar    1  UNL1        0.0552
      7 C         143.4510  139.1757  156.3347 C.ar    1  UNL1        0.0153
      8 C         143.4918  137.8096  155.7165 C.ar    1  UNL1        0.0013
      9 C         143.0834  136.6104  156.5196 C.ar    1  UNL1        0.0013
     10 C         142.6341  136.7773  157.9410 C.ar    1  UNL1        0.0159
     11 C         142.5932  138.1433  158.5592 C.ar    1  UNL1        0.0636
     12 H         143.2289  141.4957  157.8471 H       1  UNL1        0.1424
     13 H         142.6659  140.8181  159.3072 H       1  UNL1        0.1424
     14 C         143.1242  135.2443  155.9014 C.ar    1  UNL1        0.0000
     15 C         142.4286  134.9902  154.5970 C.ar    1  UNL1        0.0000
     16 C         142.4694  133.6241  153.9789 C.ar    1  UNL1        0.0000
     17 C         143.2059  132.5121  154.6652 C.ar    1  UNL1        0.0000
     18 C         143.9015  132.7662  155.9697 C.ar    1  UNL1        0.0000
     19 C         143.8607  134.1323  156.5878 C.ar    1  UNL1        0.0000
     20 C         140.2339  138.6123  161.7158 C.ar    1  UNL1        0.0537
     21 C         140.6585  137.6206  162.7580 C.ar    1  UNL1        0.0047
     22 C         140.2090  137.7876  164.1793 C.ar    1  UNL1        0.0047
     23 C         139.3349  138.9462  164.5584 C.ar    1  UNL1        0.0536
     24 C         138.9104  139.9379  163.5161 C.ar    1  UNL1        0.0047
     25 C         139.3599  139.7709  162.0948 C.ar    1  UNL1        0.0047
     26 C         138.8855  139.1130  165.9797 C.2     1  UNL1        0.2490
     27 O         137.5569  138.5697  166.4149 O.2     1  UNL1       -0.2699
     28 N         139.7647  139.8233  166.9659 N.am    1  UNL1       -0.2760
     29 C         139.3154  139.9902  168.3872 C.3     1  UNL1        0.0950
     30 C         140.1947  140.7005  169.3733 C.3     1  UNL1        0.0360
     31 C         141.5233  141.2438  168.9381 C.3     1  UNL1        0.0452
     32 C         142.8706  141.8372  168.6505 C.3     1  UNL1        0.0160
     33 C         143.3896  142.4455  169.9196 C.3     1  UNL1        0.0184
     34 C         142.3631  142.2281  170.9915 C.3     1  UNL1        0.0685
     35 N         141.2096  141.4854  170.3849 N.3     1  UNL1       -0.2994
     36 C         141.9727  141.0769  167.5167 C.3     1  UNL1        0.0360
     37 C         141.0934  140.3667  166.5306 C.3     1  UNL1        0.0950
     38 H         140.3585  142.0417  170.4663 H       1  UNL1        0.1232
@<TRIPOS>BOND
     1     5     6    1
     2     6     7   ar
     3     7     8   ar
     4     8     9   ar
     5     9    14    1
     6    14    15   ar
     7    15    16   ar
     8    16    17   ar
     9    17    18   ar
    10    18    19   ar
    11     9    10   ar
    12    10    11   ar
    13    11     1    1
    14     1     2   am
    15     2     3    2
    16     2    20    1
    17    20    21   ar
    18    21    22   ar
    19    22    23   ar
    20    23    26    1
    21    26    27    2
    22    26    28   am
    23    28    29    1
    24    29    30    1
    25    30    31    1
    26    31    32    1
    27    32    33    1
    28    33    34    1
    29    34    35    1
    30    31    36    1
    31    36    37    1
    32    23    24   ar
    33    24    25   ar
    34    11     6   ar
    35    25    20   ar
    36    19    14   ar
    37    37    28    1
    38    35    31    1
    39     5    12    1
    40     5    13    1
    41     1     4    1
    42    35    38    1
@<TRIPOS>MOLECULE
*****
 38 42 0 0 0
SMALL
GASTEIGER

@<TRIPOS>ATOM
      1 N         139.9493  140.7156  161.4496 N.am    1  UNL1       -0.2794
      2 C         139.0157  141.7475  160.8896 C.2     1  UNL1        0.2495
      3 O         137.7433  142.0785  161.6118 O.2     1  UNL1       -0.2698
      4 H         140.7844  140.4983  160.9756 H       1  UNL1        0.1552
      5 N         138.7920  137.9485  161.3861 N.pl3   1  UNL1       -0.3560
      6 C         139.0319  138.6312  162.7000 C.ar    1  UNL1        0.0552
      7 C         138.6931  137.9303  163.9821 C.ar    1  UNL1        0.0153
      8 C         138.9330  138.6130  165.2961 C.ar    1  UNL1        0.0013
      9 C         139.5116  139.9965  165.3278 C.ar    1  UNL1        0.0013
     10 C         139.8504  140.6974  164.0457 C.ar    1  UNL1        0.0159
     11 C         139.6105  140.0147  162.7317 C.ar    1  UNL1        0.0636
     12 H         138.4122  137.0405  161.3652 H       1  UNL1        0.1424
     13 H         139.0143  138.4085  160.5445 H       1  UNL1        0.1424
     14 C         139.7515  140.6792  166.6418 C.ar    1  UNL1        0.0000
     15 C         139.3569  140.0032  167.9214 C.ar    1  UNL1        0.0000
     16 C         139.5969  140.6860  169.2353 C.ar    1  UNL1        0.0000
     17 C         140.2314  142.0447  169.2695 C.ar    1  UNL1        0.0000
     18 C         140.6260  142.7207  167.9899 C.ar    1  UNL1        0.0000
     19 C         140.3861  142.0379  166.6761 C.ar    1  UNL1        0.0000
     20 C         139.3544  142.4485  159.6074 C.ar    1  UNL1        0.0537
     21 C         140.6430  143.2064  159.4846 C.ar    1  UNL1        0.0047
     22 C         140.9815  143.9073  158.2024 C.ar    1  UNL1        0.0047
     23 C         140.0315  143.8503  157.0430 C.ar    1  UNL1        0.0536
     24 C         138.7430  143.0924  157.1657 C.ar    1  UNL1        0.0047
     25 C         138.4044  142.3914  158.4480 C.ar    1  UNL1        0.0047
     26 C         140.3702  144.5512  155.7608 C.2     1  UNL1        0.2490
     27 O         141.0750  143.8095  154.6640 O.2     1  UNL1       -0.2699
     28 N         140.0040  145.9940  155.5754 N.am    1  UNL1       -0.2760
     29 C         140.3426  146.6950  154.2933 C.3     1  UNL1        0.0950
     30 C         139.9763  148.1378  154.1079 C.3     1  UNL1        0.0360
     31 C         139.2715  148.8795  155.2047 C.3     1  UNL1        0.0452
     32 C         138.5688  149.7465  156.2070 C.3     1  UNL1        0.0160
     33 C         138.4067  151.1114  155.6062 C.3     1  UNL1        0.0184
     34 C         139.0092  151.0879  154.2327 C.3     1  UNL1        0.0685
     35 N         139.5436  149.7085  153.9846 N.3     1  UNL1       -0.2994
     36 C         138.9329  148.1785  156.4869 C.3     1  UNL1        0.0360
     37 C         139.2991  146.7357  156.6722 C.3     1  UNL1        0.0950
     38 H         140.5481  149.7522  153.8128 H       1  UNL1        0.1232
@<TRIPOS>BOND
     1     5     6    1
     2     6     7   ar
     3     7     8   ar
     4     8     9   ar
     5     9    14    1
     6    14    15   ar
     7    15    16   ar
     8    16    17   ar
     9    17    18   ar
    10    18    19   ar
    11     9    10   ar
    12    10    11   ar
    13    11     1    1
    14     1     2   am
    15     2     3    2
    16     2    20    1
    17    20    21   ar
    18    21    22   ar
    19    22    23   ar
    20    23    26    1
    21    26    27    2
    22    26    28   am
    23    28    29    1
    24    29    30    1
    25    30    31    1
    26    31    32    1
    27    32    33    1
    28    33    34    1
    29    34    35    1
    30    31    36    1
    31    36    37    1
    32    23    24   ar
    33    24    25   ar
    34    11     6   ar
    35    25    20   ar
    36    19    14   ar
    37    37    28    1
    38    35    31    1
    39     5    12    1
    40     5    13    1
    41     1     4    1
    42    35    38    1
@<TRIPOS>MOLECULE
*****
 38 42 0 0 0
SMALL
GASTEIGER

@<TRIPOS>ATOM
      1 N         140.6844  144.3306  158.8781 N.am    1  UNL1       -0.2794
      2 C         140.4143  145.0272  160.1788 C.2     1  UNL1        0.2495
      3 O         139.4090  146.1389  160.2396 O.2     1  UNL1       -0.2698
      4 H         141.3441  143.6010  158.8382 H       1  UNL1        0.1552
      5 N         139.1591  142.2958  157.2864 N.pl3   1  UNL1       -0.3560
      6 C         139.1866  143.7283  156.8424 C.ar    1  UNL1        0.0552
      7 C         138.4515  144.1434  155.6025 C.ar    1  UNL1        0.0153
      8 C         138.4791  145.5760  155.1585 C.ar    1  UNL1        0.0013
      9 C         139.2417  146.5933  155.9543 C.ar    1  UNL1        0.0013
     10 C         139.9768  146.1782  157.1942 C.ar    1  UNL1        0.0159
     11 C         139.9493  144.7457  157.6382 C.ar    1  UNL1        0.0636
     12 H         138.6585  141.6281  156.7641 H       1  UNL1        0.1424
     13 H         139.6416  142.0234  158.1002 H       1  UNL1        0.1424
     14 C         139.2693  148.0259  155.5103 C.ar    1  UNL1        0.0000
     15 C         138.5291  149.0686  156.2944 C.ar    1  UNL1        0.0000
     16 C         138.5567  150.5011  155.8504 C.ar    1  UNL1        0.0000
     17 C         139.3246  150.8909  154.6222 C.ar    1  UNL1        0.0000
     18 C         140.0648  149.8482  153.8381 C.ar    1  UNL1        0.0000
     19 C         140.0372  148.4157  154.2821 C.ar    1  UNL1        0.0000
     20 C         141.1493  144.6121  161.4187 C.ar    1  UNL1        0.0537
     21 C         141.9996  143.3765  161.4085 C.ar    1  UNL1        0.0047
     22 C         142.7346  142.9615  162.6485 C.ar    1  UNL1        0.0047
     23 C         142.6193  143.7823  163.8987 C.ar    1  UNL1        0.0536
     24 C         141.7690  145.0179  163.9090 C.ar    1  UNL1        0.0047
     25 C         141.0340  145.4329  162.6690 C.ar    1  UNL1        0.0047
     26 C         143.3544  143.3673  165.1386 C.2     1  UNL1        0.2490
     27 O         144.8209  143.6526  165.2722 O.2     1  UNL1       -0.2699
     28 N         142.6228  142.6668  166.2452 N.am    1  UNL1       -0.2760
     29 C         143.3578  142.2518  167.4851 C.3     1  UNL1        0.0950
     30 C         142.6262  141.5513  168.5916 C.3     1  UNL1        0.0360
     31 C         141.1597  141.2660  168.4581 C.3     1  UNL1        0.0452
     32 C         139.7014  140.9148  168.4668 C.3     1  UNL1        0.0160
     33 C         139.3985  140.2256  169.7642 C.3     1  UNL1        0.0184
     34 C         140.6695  140.1507  170.5572 C.3     1  UNL1        0.0685
     35 N         141.7580  140.7937  169.7499 N.3     1  UNL1       -0.2994
     36 C         140.4247  141.6810  167.2181 C.3     1  UNL1        0.0360
     37 C         141.1563  142.3814  166.1116 C.3     1  UNL1        0.0950
     38 H         142.4963  140.1155  169.5620 H       1  UNL1        0.1232
@<TRIPOS>BOND
     1     5     6    1
     2     6     7   ar
     3     7     8   ar
     4     8     9   ar
     5     9    14    1
     6    14    15   ar
     7    15    16   ar
     8    16    17   ar
     9    17    18   ar
    10    18    19   ar
    11     9    10   ar
    12    10    11   ar
    13    11     1    1
    14     1     2   am
    15     2     3    2
    16     2    20    1
    17    20    21   ar
    18    21    22   ar
    19    22    23   ar
    20    23    26    1
    21    26    27    2
    22    26    28   am
    23    28    29    1
    24    29    30    1
    25    30    31    1
    26    31    32    1
    27    32    33    1
    28    33    34    1
    29    34    35    1
    30    31    36    1
    31    36    37    1
    32    23    24   ar
    33    24    25   ar
    34    11     6   ar
    35    25    20   ar
    36    19    14   ar
    37    37    28    1
    38    35    31    1
    39     5    12    1
    40     5    13    1
    41     1     4    1
    42    35    38    1
@<TRIPOS>MOLECULE
*****
 38 42 0 0 0
SMALL
GASTEIGER

@<TRIPOS>ATOM
      1 N         139.6586  141.0333  161.6635 N.am    1  UNL1       -0.2794
      2 C         140.7312  141.2083  160.6297 C.2     1  UNL1        0.2495
      3 O         141.6722  142.3734  160.7150 O.2     1  UNL1       -0.2698
      4 H         139.0410  140.2687  161.6075 H       1  UNL1        0.1552
      5 N         137.7524  143.3363  161.4125 N.pl3   1  UNL1       -0.3560
      6 C         138.5738  143.1748  162.6571 C.ar    1  UNL1        0.0552
      7 C         138.4421  144.1648  163.7763 C.ar    1  UNL1        0.0153
      8 C         139.2636  144.0033  165.0210 C.ar    1  UNL1        0.0013
      9 C         140.2166  142.8519  165.1464 C.ar    1  UNL1        0.0013
     10 C         140.3483  141.8619  164.0273 C.ar    1  UNL1        0.0159
     11 C         139.5269  142.0234  162.7826 C.ar    1  UNL1        0.0636
     12 H         137.1268  144.0920  161.3301 H       1  UNL1        0.1424
     13 H         137.8388  142.6865  160.6779 H       1  UNL1        0.1424
     14 C         141.0381  142.6904  166.3911 C.ar    1  UNL1        0.0000
     15 C         142.4974  142.3584  166.2889 C.ar    1  UNL1        0.0000
     16 C         143.3188  142.1969  167.5336 C.ar    1  UNL1        0.0000
     17 C         142.6809  142.3674  168.8805 C.ar    1  UNL1        0.0000
     18 C         141.2217  142.6994  168.9827 C.ar    1  UNL1        0.0000
     19 C         140.4003  142.8609  167.7380 C.ar    1  UNL1        0.0000
     20 C         140.8630  140.2183  159.5104 C.ar    1  UNL1        0.0537
     21 C         139.8247  139.1515  159.3266 C.ar    1  UNL1        0.0047
     22 C         139.9566  138.1616  158.2073 C.ar    1  UNL1        0.0047
     23 C         141.1267  138.2385  157.2720 C.ar    1  UNL1        0.0536
     24 C         142.1650  139.3054  157.4558 C.ar    1  UNL1        0.0047
     25 C         142.0331  140.2953  158.5751 C.ar    1  UNL1        0.0047
     26 C         141.2585  137.2486  156.1528 C.2     1  UNL1        0.2490
     27 O         140.5420  137.4829  154.8560 O.2     1  UNL1       -0.2699
     28 N         142.1068  136.0243  156.3304 N.am    1  UNL1       -0.2760
     29 C         142.2386  135.0343  155.2113 C.3     1  UNL1        0.0950
     30 C         143.0869  133.8100  155.3890 C.3     1  UNL1        0.0360
     31 C         143.8034  133.5757  156.6858 C.3     1  UNL1        0.0452
     32 C         144.5750  133.2091  157.9187 C.3     1  UNL1        0.0160
     33 C         145.2775  131.9100  157.6566 C.3     1  UNL1        0.0184
     34 C         144.9399  131.4736  156.2617 C.3     1  UNL1        0.0685
     35 N         144.0289  132.5031  155.6617 N.3     1  UNL1       -0.2994
     36 C         143.6715  134.5657  157.8049 C.3     1  UNL1        0.0360
     37 C         142.8232  135.7900  157.6273 C.3     1  UNL1        0.0950
     38 H         143.1391  132.0730  155.4093 H       1  UNL1        0.1232
@<TRIPOS>BOND
     1     5     6    1
     2     6     7   ar
     3     7     8   ar
     4     8     9   ar
     5     9    14    1
     6    14    15   ar
     7    15    16   ar
     8    16    17   ar
     9    17    18   ar
    10    18    19   ar
    11     9    10   ar
    12    10    11   ar
    13    11     1    1
    14     1     2   am
    15     2     3    2
    16     2    20    1
    17    20    21   ar
    18    21    22   ar
    19    22    23   ar
    20    23    26    1
    21    26    27    2
    22    26    28   am
    23    28    29    1
    24    29    30    1
    25    30    31    1
    26    31    32    1
    27    32    33    1
    28    33    34    1
    29    34    35    1
    30    31    36    1
    31    36    37    1
    32    23    24   ar
    33    24    25   ar
    34    11     6   ar
    35    25    20   ar
    36    19    14   ar
    37    37    28    1
    38    35    31    1
    39     5    12    1
    40     5    13    1
    41     1     4    1
    42    35    38    1
@<TRIPOS>MOLECULE
*****
 38 42 0 0 0
SMALL
GASTEIGER

@<TRIPOS>ATOM
      1 N         142.3974  141.2669  162.2313 N.am    1  UNL1       -0.2794
      2 C         143.3577  140.5072  161.3648 C.2     1  UNL1        0.2495
      3 O         144.8152  140.4669  161.7171 O.2     1  UNL1       -0.2698
      4 H         141.4408  141.2934  162.0001 H       1  UNL1        0.1552
      5 N         143.7336  143.9387  161.9555 N.pl3   1  UNL1       -0.3560
      6 C         143.5627  143.3221  163.3122 C.ar    1  UNL1        0.0552
      7 C         144.0599  144.0413  164.5309 C.ar    1  UNL1        0.0153
      8 C         143.8890  143.4246  165.8876 C.ar    1  UNL1        0.0013
      9 C         143.2210  142.0888  166.0255 C.ar    1  UNL1        0.0013
     10 C         142.7237  141.3695  164.8067 C.ar    1  UNL1        0.0159
     11 C         142.8946  141.9862  163.4501 C.ar    1  UNL1        0.0636
     12 H         144.1721  144.8155  161.8650 H       1  UNL1        0.1424
     13 H         143.4073  143.4666  161.1556 H       1  UNL1        0.1424
     14 C         143.0500  141.4721  167.3822 C.ar    1  UNL1        0.0000
     15 C         143.3396  142.2774  168.6141 C.ar    1  UNL1        0.0000
     16 C         143.1686  141.6607  169.9707 C.ar    1  UNL1        0.0000
     17 C         142.7081  140.2386  170.0954 C.ar    1  UNL1        0.0000
     18 C         142.4186  139.4332  168.8635 C.ar    1  UNL1        0.0000
     19 C         142.5895  140.0500  167.5069 C.ar    1  UNL1        0.0000
     20 C         142.8606  139.7879  160.1460 C.ar    1  UNL1        0.0537
     21 C         143.6036  139.9087  158.8485 C.ar    1  UNL1        0.0047
     22 C         143.1064  139.1893  157.6298 C.ar    1  UNL1        0.0047
     23 C         141.8662  138.3492  157.7085 C.ar    1  UNL1        0.0536
     24 C         141.1232  138.2284  159.0060 C.ar    1  UNL1        0.0047
     25 C         141.6204  138.9478  160.2247 C.ar    1  UNL1        0.0047
     26 C         141.3691  137.6299  156.4898 C.2     1  UNL1        0.2490
     27 O         140.3161  138.2578  155.6255 O.2     1  UNL1       -0.2699
     28 N         141.9249  136.2825  156.1352 N.am    1  UNL1       -0.2760
     29 C         141.4279  135.5631  154.9164 C.3     1  UNL1        0.0950
     30 C         141.9838  134.2158  154.5619 C.3     1  UNL1        0.0360
     31 C         143.0368  133.5878  155.4262 C.3     1  UNL1        0.0452
     32 C         144.0875  132.8386  156.1907 C.3     1  UNL1        0.0160
     33 C         144.3396  131.5409  155.4819 C.3     1  UNL1        0.0184
     34 C         143.4447  131.4881  154.2793 C.3     1  UNL1        0.0685
     35 N         142.6395  132.7532  154.2448 N.3     1  UNL1       -0.2994
     36 C         143.5338  134.3072  156.6449 C.3     1  UNL1        0.0360
     37 C         142.9779  135.6546  156.9994 C.3     1  UNL1        0.0950
     38 H         141.6450  132.5321  154.2959 H       1  UNL1        0.1232
@<TRIPOS>BOND
     1     5     6    1
     2     6     7   ar
     3     7     8   ar
     4     8     9   ar
     5     9    14    1
     6    14    15   ar
     7    15    16   ar
     8    16    17   ar
     9    17    18   ar
    10    18    19   ar
    11     9    10   ar
    12    10    11   ar
    13    11     1    1
    14     1     2   am
    15     2     3    2
    16     2    20    1
    17    20    21   ar
    18    21    22   ar
    19    22    23   ar
    20    23    26    1
    21    26    27    2
    22    26    28   am
    23    28    29    1
    24    29    30    1
    25    30    31    1
    26    31    32    1
    27    32    33    1
    28    33    34    1
    29    34    35    1
    30    31    36    1
    31    36    37    1
    32    23    24   ar
    33    24    25   ar
    34    11     6   ar
    35    25    20   ar
    36    19    14   ar
    37    37    28    1
    38    35    31    1
    39     5    12    1
    40     5    13    1
    41     1     4    1
    42    35    38    1
@<TRIPOS>MOLECULE
*****
 38 42 0 0 0
SMALL
GASTEIGER

@<TRIPOS>ATOM
      1 N         143.2085  138.1162  159.3884 N.am    1  UNL1       -0.2794
      2 C         142.0932  138.3334  160.3677 C.2     1  UNL1        0.2495
      3 O         140.6906  138.5331  159.8749 O.2     1  UNL1       -0.2698
      4 H         144.1290  137.9852  159.7119 H       1  UNL1        0.1552
      5 N         143.1147  140.6887  157.8477 N.pl3   1  UNL1       -0.3560
      6 C         142.8743  139.3849  157.1460 C.ar    1  UNL1        0.0552
      7 C         142.5870  139.3674  155.6739 C.ar    1  UNL1        0.0153
      8 C         142.3465  138.0636  154.9721 C.ar    1  UNL1        0.0013
      9 C         142.3934  136.7775  155.7425 C.ar    1  UNL1        0.0013
     10 C         142.6807  136.7950  157.2146 C.ar    1  UNL1        0.0159
     11 C         142.9211  138.0987  157.9163 C.ar    1  UNL1        0.0636
     12 H         143.0840  141.5328  157.3421 H       1  UNL1        0.1424
     13 H         143.3033  140.7002  158.8139 H       1  UNL1        0.1424
     14 C         142.1529  135.4736  155.0408 C.ar    1  UNL1        0.0000
     15 C         142.0346  135.4371  153.5459 C.ar    1  UNL1        0.0000
     16 C         141.7942  134.1333  152.8442 C.ar    1  UNL1        0.0000
     17 C         141.6721  132.8661  153.6375 C.ar    1  UNL1        0.0000
     18 C         141.7904  132.9027  155.1324 C.ar    1  UNL1        0.0000
     19 C         142.0308  134.2064  155.8340 C.ar    1  UNL1        0.0000
     20 C         142.3804  138.3509  161.8399 C.ar    1  UNL1        0.0537
     21 C         143.5693  139.1009  162.3633 C.ar    1  UNL1        0.0047
     22 C         143.8564  139.1184  163.8355 C.ar    1  UNL1        0.0047
     23 C         142.9546  138.3858  164.7842 C.ar    1  UNL1        0.0536
     24 C         141.7657  137.6358  164.2608 C.ar    1  UNL1        0.0047
     25 C         141.4786  137.6184  162.7887 C.ar    1  UNL1        0.0047
     26 C         143.2418  138.4034  166.2563 C.2     1  UNL1        0.2490
     27 O         144.1205  137.3492  166.8617 O.2     1  UNL1       -0.2699
     28 N         142.6502  139.4751  167.1232 N.am    1  UNL1       -0.2760
     29 C         142.9373  139.4927  168.5953 C.3     1  UNL1        0.0950
     30 C         142.3456  140.5645  169.4621 C.3     1  UNL1        0.0360
     31 C         141.4669  141.6187  168.8567 C.3     1  UNL1        0.0452
     32 C         140.5746  142.7328  168.3958 C.3     1  UNL1        0.0160
     33 C         140.2199  143.5671  169.5909 C.3     1  UNL1        0.0184
     34 C         140.8931  142.9686  170.7903 C.3     1  UNL1        0.0685
     35 N         141.6637  141.7644  170.3366 N.3     1  UNL1       -0.2994
     36 C         141.1798  141.6011  167.3846 C.3     1  UNL1        0.0360
     37 C         141.7714  140.5293  166.5178 C.3     1  UNL1        0.0950
     38 H         141.3190  140.9323  170.8153 H       1  UNL1        0.1232
@<TRIPOS>BOND
     1     5     6    1
     2     6     7   ar
     3     7     8   ar
     4     8     9   ar
     5     9    14    1
     6    14    15   ar
     7    15    16   ar
     8    16    17   ar
     9    17    18   ar
    10    18    19   ar
    11     9    10   ar
    12    10    11   ar
    13    11     1    1
    14     1     2   am
    15     2     3    2
    16     2    20    1
    17    20    21   ar
    18    21    22   ar
    19    22    23   ar
    20    23    26    1
    21    26    27    2
    22    26    28   am
    23    28    29    1
    24    29    30    1
    25    30    31    1
    26    31    32    1
    27    32    33    1
    28    33    34    1
    29    34    35    1
    30    31    36    1
    31    36    37    1
    32    23    24   ar
    33    24    25   ar
    34    11     6   ar
    35    25    20   ar
    36    19    14   ar
    37    37    28    1
    38    35    31    1
    39     5    12    1
    40     5    13    1
    41     1     4    1
    42    35    38    1
@<TRIPOS>MOLECULE
*****
 38 42 0 0 0
SMALL
GASTEIGER

@<TRIPOS>ATOM
      1 N         142.1047  138.0322  158.5446 N.am    1  UNL1       -0.2794
      2 C         142.9516  139.1720  159.0280 C.2     1  UNL1        0.2495
      3 O         144.2193  139.5228  158.3071 O.2     1  UNL1       -0.2698
      4 H         141.2726  137.8019  159.0177 H       1  UNL1        0.1552
      5 N         142.0215  139.2907  155.8226 N.pl3   1  UNL1       -0.3560
      6 C         142.4841  137.8725  155.9793 C.ar    1  UNL1        0.0552
      7 C         142.9050  137.0835  154.7750 C.ar    1  UNL1        0.0153
      8 C         143.3676  135.6651  154.9318 C.ar    1  UNL1        0.0013
      9 C         143.4092  135.0359  156.2928 C.ar    1  UNL1        0.0013
     10 C         142.9882  135.8249  157.4970 C.ar    1  UNL1        0.0159
     11 C         142.5257  137.2432  157.3403 C.ar    1  UNL1        0.0636
     12 H         141.9942  139.7037  154.9293 H       1  UNL1        0.1424
     13 H         141.7452  139.8086  156.6130 H       1  UNL1        0.1424
     14 C         143.8717  133.6176  156.4496 C.ar    1  UNL1        0.0000
     15 C         144.5309  133.1802  157.7240 C.ar    1  UNL1        0.0000
     16 C         144.9934  131.7619  157.8807 C.ar    1  UNL1        0.0000
     17 C         144.7968  130.7811  156.7630 C.ar    1  UNL1        0.0000
     18 C         144.1376  131.2185  155.4886 C.ar    1  UNL1        0.0000
     19 C         143.6751  132.6368  155.3319 C.ar    1  UNL1        0.0000
     20 C         142.5307  139.9611  160.2323 C.ar    1  UNL1        0.0537
     21 C         143.4833  140.9334  160.8624 C.ar    1  UNL1        0.0047
     22 C         143.0624  141.7224  162.0666 C.ar    1  UNL1        0.0047
     23 C         141.6888  141.5391  162.6408 C.ar    1  UNL1        0.0536
     24 C         140.7361  140.5668  162.0107 C.ar    1  UNL1        0.0047
     25 C         141.1571  139.7778  160.8064 C.ar    1  UNL1        0.0047
     26 C         141.2679  142.3281  163.8450 C.2     1  UNL1        0.2490
     27 O         140.6351  143.6773  163.6741 O.2     1  UNL1       -0.2699
     28 N         141.4799  141.7680  165.2203 N.am    1  UNL1       -0.2760
     29 C         141.0590  142.5570  166.4246 C.3     1  UNL1        0.0950
     30 C         141.2711  141.9968  167.7999 C.3     1  UNL1        0.0360
     31 C         141.9039  140.6476  167.9708 C.3     1  UNL1        0.0452
     32 C         142.5207  139.3196  168.2964 C.3     1  UNL1        0.0160
     33 C         142.5343  139.1684  169.7887 C.3     1  UNL1        0.0184
     34 C         141.9260  140.4029  170.3853 C.3     1  UNL1        0.0685
     35 N         141.5363  141.3171  169.2618 N.3     1  UNL1       -0.2994
     36 C         142.3247  139.8586  166.7665 C.3     1  UNL1        0.0360
     37 C         142.1127  140.4188  165.3912 C.3     1  UNL1        0.0950
     38 H         142.0356  142.2025  169.3470 H       1  UNL1        0.1232
@<TRIPOS>BOND
     1     5     6    1
     2     6     7   ar
     3     7     8   ar
     4     8     9   ar
     5     9    14    1
     6    14    15   ar
     7    15    16   ar
     8    16    17   ar
     9    17    18   ar
    10    18    19   ar
    11     9    10   ar
    12    10    11   ar
    13    11     1    1
    14     1     2   am
    15     2     3    2
    16     2    20    1
    17    20    21   ar
    18    21    22   ar
    19    22    23   ar
    20    23    26    1
    21    26    27    2
    22    26    28   am
    23    28    29    1
    24    29    30    1
    25    30    31    1
    26    31    32    1
    27    32    33    1
    28    33    34    1
    29    34    35    1
    30    31    36    1
    31    36    37    1
    32    23    24   ar
    33    24    25   ar
    34    11     6   ar
    35    25    20   ar
    36    19    14   ar
    37    37    28    1
    38    35    31    1
    39     5    12    1
    40     5    13    1
    41     1     4    1
    42    35    38    1
@<TRIPOS>MOLECULE
*****
 38 42 0 0 0
SMALL
GASTEIGER

@<TRIPOS>ATOM
      1 N         140.6876  142.8900  161.7637 N.am    1  UNL1       -0.2794
      2 C         141.8237  143.6223  161.1134 C.2     1  UNL1        0.2495
      3 O         142.5193  144.7307  161.8467 O.2     1  UNL1       -0.2698
      4 H         140.2311  142.1625  161.2824 H       1  UNL1        0.1552
      5 N         138.5622  144.9723  162.1470 N.pl3   1  UNL1       -0.3560
      6 C         139.1843  144.3072  163.3389 C.ar    1  UNL1        0.0552
      7 C         138.7436  144.6833  164.7226 C.ar    1  UNL1        0.0153
      8 C         139.3658  144.0181  165.9145 C.ar    1  UNL1        0.0013
      9 C         140.4284  142.9771  165.7228 C.ar    1  UNL1        0.0013
     10 C         140.8690  142.6010  164.3392 C.ar    1  UNL1        0.0159
     11 C         140.2470  143.2661  163.1473 C.ar    1  UNL1        0.0636
     12 H         137.8648  145.6556  162.2728 H       1  UNL1        0.1424
     13 H         138.8514  144.7255  161.2389 H       1  UNL1        0.1424
     14 C         141.0505  142.3119  166.9148 C.ar    1  UNL1        0.0000
     15 C         140.7509  142.8149  168.2958 C.ar    1  UNL1        0.0000
     16 C         141.3730  142.1498  169.4876 C.ar    1  UNL1        0.0000
     17 C         142.2947  140.9816  169.2985 C.ar    1  UNL1        0.0000
     18 C         142.5943  140.4786  167.9174 C.ar    1  UNL1        0.0000
     19 C         141.9722  141.1438  166.7256 C.ar    1  UNL1        0.0000
     20 C         142.2645  143.2463  159.7297 C.ar    1  UNL1        0.0537
     21 C         142.5978  141.8190  159.4106 C.ar    1  UNL1        0.0047
     22 C         143.0385  141.4432  158.0269 C.ar    1  UNL1        0.0047
     23 C         143.1459  142.4945  156.9624 C.ar    1  UNL1        0.0536
     24 C         142.8126  143.9217  157.2816 C.ar    1  UNL1        0.0047
     25 C         142.3718  144.2976  158.6652 C.ar    1  UNL1        0.0047
     26 C         143.5866  142.1185  155.5789 C.2     1  UNL1        0.2490
     27 O         142.5658  141.8640  154.5097 O.2     1  UNL1       -0.2699
     28 N         145.0483  141.9971  155.2643 N.am    1  UNL1       -0.2760
     29 C         145.4891  141.6212  153.8807 C.3     1  UNL1        0.0950
     30 C         146.9507  141.4997  153.5663 C.3     1  UNL1        0.0360
     31 C         147.9716  141.7543  154.6354 C.3     1  UNL1        0.0452
     32 C         149.1016  141.9775  155.5963 C.3     1  UNL1        0.0160
     33 C         150.3882  141.7495  154.8596 C.3     1  UNL1        0.0184
     34 C         150.0533  141.3855  153.4435 C.3     1  UNL1        0.0685
     35 N         148.5597  141.3884  153.3049 N.3     1  UNL1       -0.2994
     36 C         147.5307  142.1303  156.0190 C.3     1  UNL1        0.0360
     37 C         146.0691  142.2517  156.3335 C.3     1  UNL1        0.0950
     38 H         148.2361  140.4621  153.0264 H       1  UNL1        0.1232
@<TRIPOS>BOND
     1     5     6    1
     2     6     7   ar
     3     7     8   ar
     4     8     9   ar
     5     9    14    1
     6    14    15   ar
     7    15    16   ar
     8    16    17   ar
     9    17    18   ar
    10    18    19   ar
    11     9    10   ar
    12    10    11   ar
    13    11     1    1
    14     1     2   am
    15     2     3    2
    16     2    20    1
    17    20    21   ar
    18    21    22   ar
    19    22    23   ar
    20    23    26    1
    21    26    27    2
    22    26    28   am
    23    28    29    1
    24    29    30    1
    25    30    31    1
    26    31    32    1
    27    32    33    1
    28    33    34    1
    29    34    35    1
    30    31    36    1
    31    36    37    1
    32    23    24   ar
    33    24    25   ar
    34    11     6   ar
    35    25    20   ar
    36    19    14   ar
    37    37    28    1
    38    35    31    1
    39     5    12    1
    40     5    13    1
    41     1     4    1
    42    35    38    1
@<TRIPOS>MOLECULE
*****
 38 42 0 0 0
SMALL
GASTEIGER

@<TRIPOS>ATOM
      1 N         142.1339  138.5396  159.0098 N.am    1  UNL1       -0.2794
      2 C         143.3158  139.4209  159.2864 C.2     1  UNL1        0.2495
      3 O         144.3472  139.6485  158.2213 O.2     1  UNL1       -0.2698
      4 H         141.4569  138.3902  159.7088 H       1  UNL1        0.1552
      5 N         140.7211  139.9800  156.7895 N.pl3   1  UNL1       -0.3560
      6 C         141.2770  138.6062  156.5580 C.ar    1  UNL1        0.0552
      7 C         141.1266  137.9526  155.2163 C.ar    1  UNL1        0.0153
      8 C         141.6825  136.5788  154.9847 C.ar    1  UNL1        0.0013
      9 C         142.3889  135.8587  156.0948 C.ar    1  UNL1        0.0013
     10 C         142.5394  136.5123  157.4365 C.ar    1  UNL1        0.0159
     11 C         141.9834  137.8860  157.6681 C.ar    1  UNL1        0.0636
     12 H         140.2575  140.4527  156.0609 H       1  UNL1        0.1424
     13 H         140.8198  140.4090  157.6701 H       1  UNL1        0.1424
     14 C         142.9449  134.4848  155.8633 C.ar    1  UNL1        0.0000
     15 C         143.8813  133.8761  156.8645 C.ar    1  UNL1        0.0000
     16 C         144.4372  132.5023  156.6330 C.ar    1  UNL1        0.0000
     17 C         144.0567  131.7372  155.4001 C.ar    1  UNL1        0.0000
     18 C         143.1203  132.3460  154.3989 C.ar    1  UNL1        0.0000
     19 C         142.5644  133.7198  154.6304 C.ar    1  UNL1        0.0000
     20 C         143.4664  140.0745  160.6281 C.ar    1  UNL1        0.0537
     21 C         144.2527  139.3948  161.7096 C.ar    1  UNL1        0.0047
     22 C         144.4032  140.0486  163.0512 C.ar    1  UNL1        0.0047
     23 C         143.7674  141.3820  163.3114 C.ar    1  UNL1        0.0536
     24 C         142.9810  142.0617  162.2299 C.ar    1  UNL1        0.0047
     25 C         142.8305  141.4080  160.8883 C.ar    1  UNL1        0.0047
     26 C         143.9179  142.0356  164.6530 C.2     1  UNL1        0.2490
     27 O         145.0416  142.9991  164.8961 O.2     1  UNL1       -0.2699
     28 N         142.9448  141.7258  165.7517 N.am    1  UNL1       -0.2760
     29 C         143.0953  142.3794  167.0934 C.3     1  UNL1        0.0950
     30 C         142.1221  142.0696  168.1920 C.3     1  UNL1        0.0360
     31 C         140.9984  141.1061  167.9489 C.3     1  UNL1        0.0452
     32 C         139.8313  140.1687  167.8544 C.3     1  UNL1        0.0160
     33 C         139.1331  140.1625  169.1820 C.3     1  UNL1        0.0184
     34 C         139.8687  141.0962  170.0970 C.3     1  UNL1        0.0685
     35 N         141.0216  141.6793  169.3348 N.3     1  UNL1       -0.2994
     36 C         140.8479  140.4525  166.6072 C.3     1  UNL1        0.0360
     37 C         141.8211  140.7624  165.5086 C.3     1  UNL1        0.0950
     38 H         141.8989  141.4368  169.7951 H       1  UNL1        0.1232
@<TRIPOS>BOND
     1     5     6    1
     2     6     7   ar
     3     7     8   ar
     4     8     9   ar
     5     9    14    1
     6    14    15   ar
     7    15    16   ar
     8    16    17   ar
     9    17    18   ar
    10    18    19   ar
    11     9    10   ar
    12    10    11   ar
    13    11     1    1
    14     1     2   am
    15     2     3    2
    16     2    20    1
    17    20    21   ar
    18    21    22   ar
    19    22    23   ar
    20    23    26    1
    21    26    27    2
    22    26    28   am
    23    28    29    1
    24    29    30    1
    25    30    31    1
    26    31    32    1
    27    32    33    1
    28    33    34    1
    29    34    35    1
    30    31    36    1
    31    36    37    1
    32    23    24   ar
    33    24    25   ar
    34    11     6   ar
    35    25    20   ar
    36    19    14   ar
    37    37    28    1
    38    35    31    1
    39     5    12    1
    40     5    13    1
    41     1     4    1
    42    35    38    1
