@<TRIPOS>MOLECULE
*****
 32 36 0 0 0
SMALL
GASTEIGER

@<TRIPOS>ATOM
      1 C         141.1173  145.1277  160.8120 C.3     1  UNL1        0.0730
      2 N         140.6338  144.7177  162.1715 N.3     1  UNL1       -0.2724
      3 C         139.5570  145.3956  162.9658 C.3     1  UNL1        0.0724
      4 C         139.3999  144.6548  164.2606 C.3     1  UNL1        0.0214
      5 C         139.4710  143.7318  165.4408 C.3     1  UNL1        0.0072
      6 C         140.3796  143.5189  164.2665 C.3     1  UNL1        0.0350
      7 C         141.1422  143.5578  162.9754 C.3     1  UNL1        0.0761
      8 C         141.0779  142.3146  164.8249 C.ar    1  UNL1       -0.0215
      9 C         140.9922  142.0106  166.2912 C.ar    1  UNL1       -0.0043
     10 C         141.6906  140.8062  166.8497 C.ar    1  UNL1        0.0035
     11 C         142.4746  139.9057  165.9416 C.ar    1  UNL1        0.0714
     12 C         142.5603  140.2097  164.4752 C.ar    1  UNL1        0.0035
     13 C         141.8620  141.4141  163.9168 C.ar    1  UNL1       -0.0043
     14 C         143.1729  138.7014  166.5000 C.3     1  UNL1        0.4186
     15 F         143.8713  137.4970  167.0584 F       1  UNL1       -0.1659
     16 F         143.2044  139.3471  167.8535 F       1  UNL1       -0.1659
     17 F         143.1415  138.0557  165.1465 F       1  UNL1       -0.1659
     18 C         140.2596  144.8838  159.6059 C.3     1  UNL1        0.0294
     19 C         140.3653  143.5866  158.8602 C.3     1  UNL1        0.0666
     20 S         139.2786  142.5599  158.9836 S.3     1  UNL1       -0.0756
     21 C         140.2726  140.0216  160.7774 C.3     1  UNL1        0.1340
     22 N         139.2138  141.0122  161.1619 N.ar    1  UNL1       -0.2884
     23 C         138.7570  142.1789  160.3373 C.ar    1  UNL1        0.1932
     24 N         137.6869  142.8977  161.1042 N.ar    1  UNL1       -0.1221
     25 N         137.4824  142.1753  162.4027 N.ar    1  UNL1       -0.1282
     26 C         138.4261  141.0099  162.4383 C.ar    1  UNL1        0.1668
     27 C         138.5588  140.0167  163.5546 C.ar    1  UNL1        0.0360
     28 C         139.1814  138.6767  163.2961 C.ar    1  UNL1        0.0030
     29 C         139.3140  137.6835  164.4124 C.ar    1  UNL1        0.0001
     30 C         138.8242  138.0303  165.7871 C.ar    1  UNL1        0.0000
     31 C         138.2016  139.3703  166.0455 C.ar    1  UNL1        0.0001
     32 C         138.0689  140.3635  164.9293 C.ar    1  UNL1        0.0030
@<TRIPOS>BOND
     1    21    22    1
     2    22    23   ar
     3    23    20    1
     4    20    19    1
     5    19    18    1
     6    18     1    1
     7     1     2    1
     8     2     3    1
     9     4     3    1
    10     4     5    1
    11     5     6    1
    12     6     8    1
    13     8     9   ar
    14     9    10   ar
    15    10    11   ar
    16    11    14    1
    17    14    15    1
    18    14    16    1
    19    14    17    1
    20    11    12   ar
    21    12    13   ar
    22     6     7    1
    23    23    24   ar
    24    24    25   ar
    25    25    26   ar
    26    26    27    1
    27    27    28   ar
    28    28    29   ar
    29    29    30   ar
    30    30    31   ar
    31    31    32   ar
    32    26    22   ar
    33    32    27   ar
    34     7     2    1
    35     6     4    1
    36    13     8   ar
@<TRIPOS>MOLECULE
*****
 32 36 0 0 0
SMALL
GASTEIGER

@<TRIPOS>ATOM
      1 C         145.4642  141.8284  163.2358 C.3     1  UNL1        0.0730
      2 N         144.6945  140.8678  164.0930 N.3     1  UNL1       -0.2724
      3 C         144.6965  139.3734  163.9630 C.3     1  UNL1        0.0724
      4 C         143.7909  138.8149  165.0203 C.3     1  UNL1        0.0214
      5 C         142.8435  138.5575  166.1543 C.3     1  UNL1        0.0072
      6 C         143.2292  139.9640  165.8038 C.3     1  UNL1        0.0350
      7 C         143.7876  141.2328  165.2307 C.3     1  UNL1        0.0761
      8 C         142.4030  140.6231  166.8682 C.ar    1  UNL1       -0.0215
      9 C         141.7781  139.7958  167.9522 C.ar    1  UNL1       -0.0043
     10 C         140.9518  140.4549  169.0167 C.ar    1  UNL1        0.0035
     11 C         140.7504  141.9412  168.9970 C.ar    1  UNL1        0.0714
     12 C         141.3754  142.7685  167.9129 C.ar    1  UNL1        0.0035
     13 C         142.2016  142.1094  166.8485 C.ar    1  UNL1       -0.0043
     14 C         139.9242  142.6003  170.0614 C.3     1  UNL1        0.4186
     15 F         139.0980  143.2593  171.1258 F       1  UNL1       -0.1659
     16 F         140.8289  143.7961  170.0232 F       1  UNL1       -0.1659
     17 F         139.0195  141.4044  170.0996 F       1  UNL1       -0.1659
     18 C         144.7571  142.9705  162.5683 C.3     1  UNL1        0.0294
     19 C         144.2363  142.8158  161.1701 C.3     1  UNL1        0.0666
     20 S         142.7579  142.8178  160.9159 S.3     1  UNL1       -0.0756
     21 C         141.8623  139.8483  161.9306 C.3     1  UNL1        0.1340
     22 N         141.3925  141.1538  162.5008 N.ar    1  UNL1       -0.2884
     23 C         141.8042  142.5187  162.0344 C.ar    1  UNL1        0.1932
     24 N         141.0947  143.5319  162.8829 N.ar    1  UNL1       -0.1221
     25 N         140.2446  142.7933  163.8736 N.ar    1  UNL1       -0.1282
     26 C         140.4287  141.3235  163.6375 C.ar    1  UNL1        0.1668
     27 C         139.7653  140.2175  164.4036 C.ar    1  UNL1        0.0360
     28 C         138.9556  140.5329  165.6263 C.ar    1  UNL1        0.0030
     29 C         138.2923  139.4269  166.3923 C.ar    1  UNL1        0.0001
     30 C         138.4386  138.0056  165.9357 C.ar    1  UNL1        0.0000
     31 C         139.2483  137.6902  164.7130 C.ar    1  UNL1        0.0001
     32 C         139.9116  138.7962  163.9470 C.ar    1  UNL1        0.0030
@<TRIPOS>BOND
     1    21    22    1
     2    22    23   ar
     3    23    20    1
     4    20    19    1
     5    19    18    1
     6    18     1    1
     7     1     2    1
     8     2     3    1
     9     4     3    1
    10     4     5    1
    11     5     6    1
    12     6     8    1
    13     8     9   ar
    14     9    10   ar
    15    10    11   ar
    16    11    14    1
    17    14    15    1
    18    14    16    1
    19    14    17    1
    20    11    12   ar
    21    12    13   ar
    22     6     7    1
    23    23    24   ar
    24    24    25   ar
    25    25    26   ar
    26    26    27    1
    27    27    28   ar
    28    28    29   ar
    29    29    30   ar
    30    30    31   ar
    31    31    32   ar
    32    26    22   ar
    33    32    27   ar
    34     7     2    1
    35     6     4    1
    36    13     8   ar
@<TRIPOS>MOLECULE
*****
 32 36 0 0 0
SMALL
GASTEIGER

@<TRIPOS>ATOM
      1 C         145.5086  141.7687  163.2261 C.3     1  UNL1        0.0730
      2 N         144.7451  140.8058  164.0863 N.3     1  UNL1       -0.2724
      3 C         144.7661  139.3106  163.9688 C.3     1  UNL1        0.0724
      4 C         143.8604  138.7498  165.0249 C.3     1  UNL1        0.0214
      5 C         142.9088  138.4903  166.1549 C.3     1  UNL1        0.0072
      6 C         143.2797  139.8985  165.7951 C.3     1  UNL1        0.0350
      7 C         143.8264  141.1692  165.2150 C.3     1  UNL1        0.0761
      8 C         142.4386  140.5562  166.8486 C.ar    1  UNL1       -0.0215
      9 C         141.7959  139.7272  167.9209 C.ar    1  UNL1       -0.0043
     10 C         140.9547  140.3850  168.9745 C.ar    1  UNL1        0.0035
     11 C         140.7564  141.8717  168.9558 C.ar    1  UNL1        0.0714
     12 C         141.3992  142.7007  167.8835 C.ar    1  UNL1        0.0035
     13 C         142.2403  142.0430  166.8300 C.ar    1  UNL1       -0.0043
     14 C         139.9153  142.5294  170.0093 C.3     1  UNL1        0.4186
     15 F         139.0742  143.1872  171.0628 F       1  UNL1       -0.1659
     16 F         140.8153  143.7290  169.9789 F       1  UNL1       -0.1659
     17 F         139.0153  141.3298  170.0397 F       1  UNL1       -0.1659
     18 C         144.7877  142.8795  162.5216 C.3     1  UNL1        0.0294
     19 C         144.4660  142.7575  161.0616 C.3     1  UNL1        0.0666
     20 S         143.1006  142.3115  160.6291 S.3     1  UNL1       -0.0756
     21 C         141.0436  142.5029  163.1552 C.3     1  UNL1        0.1340
     22 N         141.4917  141.2424  162.4766 N.ar    1  UNL1       -0.2884
     23 C         142.4372  141.1545  161.3155 C.ar    1  UNL1        0.1932
     24 N         142.6028  139.7063  160.9613 N.ar    1  UNL1       -0.1221
     25 N         141.7597  138.8993  161.9035 N.ar    1  UNL1       -0.1282
     26 C         141.0730  139.8487  162.8400 C.ar    1  UNL1        0.1668
     27 C         140.1326  139.4706  163.9459 C.ar    1  UNL1        0.0360
     28 C         139.7995  138.0280  164.1868 C.ar    1  UNL1        0.0030
     29 C         138.8592  137.6500  165.2926 C.ar    1  UNL1        0.0001
     30 C         138.2519  138.7145  166.1575 C.ar    1  UNL1        0.0000
     31 C         138.5850  140.1571  165.9166 C.ar    1  UNL1        0.0001
     32 C         139.5253  140.5351  164.8108 C.ar    1  UNL1        0.0030
@<TRIPOS>BOND
     1    21    22    1
     2    22    23   ar
     3    23    20    1
     4    20    19    1
     5    19    18    1
     6    18     1    1
     7     1     2    1
     8     2     3    1
     9     4     3    1
    10     4     5    1
    11     5     6    1
    12     6     8    1
    13     8     9   ar
    14     9    10   ar
    15    10    11   ar
    16    11    14    1
    17    14    15    1
    18    14    16    1
    19    14    17    1
    20    11    12   ar
    21    12    13   ar
    22     6     7    1
    23    23    24   ar
    24    24    25   ar
    25    25    26   ar
    26    26    27    1
    27    27    28   ar
    28    28    29   ar
    29    29    30   ar
    30    30    31   ar
    31    31    32   ar
    32    26    22   ar
    33    32    27   ar
    34     7     2    1
    35     6     4    1
    36    13     8   ar
@<TRIPOS>MOLECULE
*****
 32 36 0 0 0
SMALL
GASTEIGER

@<TRIPOS>ATOM
      1 C         138.7925  138.2972  164.3258 C.3     1  UNL1        0.0730
      2 N         140.2098  138.2940  164.8171 N.3     1  UNL1       -0.2724
      3 C         141.2990  137.3691  164.3611 C.3     1  UNL1        0.0724
      4 C         142.5491  137.7187  165.1128 C.3     1  UNL1        0.0214
      5 C         143.6181  138.2865  165.9986 C.3     1  UNL1        0.0072
      6 C         142.2324  138.8597  166.0335 C.3     1  UNL1        0.0350
      7 C         140.7867  139.2153  165.8508 C.3     1  UNL1        0.0761
      8 C         142.5196  139.9009  167.0745 C.ar    1  UNL1       -0.0215
      9 C         142.5469  139.5228  168.5258 C.ar    1  UNL1       -0.0043
     10 C         142.8341  140.5639  169.5668 C.ar    1  UNL1        0.0035
     11 C         143.0940  141.9831  169.1564 C.ar    1  UNL1        0.0714
     12 C         143.0667  142.3612  167.7050 C.ar    1  UNL1        0.0035
     13 C         142.7795  141.3201  166.6641 C.ar    1  UNL1       -0.0043
     14 C         143.3812  143.0243  170.1974 C.3     1  UNL1        0.4186
     15 F         143.6684  144.0654  171.2383 F       1  UNL1       -0.1659
     16 F         141.9226  143.3696  170.2543 F       1  UNL1       -0.1659
     17 F         144.8397  142.6789  170.1404 F       1  UNL1       -0.1659
     18 C         138.4474  137.6303  163.0273 C.3     1  UNL1        0.0294
     19 C         137.9077  138.4422  161.8874 C.3     1  UNL1        0.0666
     20 S         138.8367  138.9601  160.8296 S.3     1  UNL1       -0.0756
     21 C         140.1283  141.3001  162.7020 C.3     1  UNL1        0.1340
     22 N         140.8879  140.2167  161.9953 N.ar    1  UNL1       -0.2884
     23 C         140.2942  139.1412  161.1347 C.ar    1  UNL1        0.1932
     24 N         141.4139  138.2784  160.6327 N.ar    1  UNL1       -0.1221
     25 N         142.6994  138.8207  161.1831 N.ar    1  UNL1       -0.1282
     26 C         142.3744  140.0187  162.0252 C.ar    1  UNL1        0.1668
     27 C         143.3625  140.8693  162.7671 C.ar    1  UNL1        0.0360
     28 C         144.6313  140.2629  163.2890 C.ar    1  UNL1        0.0030
     29 C         145.6193  141.1135  164.0308 C.ar    1  UNL1        0.0001
     30 C         145.3385  142.5705  164.2507 C.ar    1  UNL1        0.0000
     31 C         144.0697  143.1769  163.7288 C.ar    1  UNL1        0.0001
     32 C         143.0817  142.3263  162.9870 C.ar    1  UNL1        0.0030
@<TRIPOS>BOND
     1    21    22    1
     2    22    23   ar
     3    23    20    1
     4    20    19    1
     5    19    18    1
     6    18     1    1
     7     1     2    1
     8     2     3    1
     9     4     3    1
    10     4     5    1
    11     5     6    1
    12     6     8    1
    13     8     9   ar
    14     9    10   ar
    15    10    11   ar
    16    11    14    1
    17    14    15    1
    18    14    16    1
    19    14    17    1
    20    11    12   ar
    21    12    13   ar
    22     6     7    1
    23    23    24   ar
    24    24    25   ar
    25    25    26   ar
    26    26    27    1
    27    27    28   ar
    28    28    29   ar
    29    29    30   ar
    30    30    31   ar
    31    31    32   ar
    32    26    22   ar
    33    32    27   ar
    34     7     2    1
    35     6     4    1
    36    13     8   ar
@<TRIPOS>MOLECULE
*****
 32 36 0 0 0
SMALL
GASTEIGER

@<TRIPOS>ATOM
      1 C         139.9734  144.3031  160.7289 C.3     1  UNL1        0.0730
      2 N         140.3247  144.0057  162.1565 N.3     1  UNL1       -0.2724
      3 C         141.2031  144.8405  163.0406 C.3     1  UNL1        0.0724
      4 C         141.2806  144.1722  164.3812 C.3     1  UNL1        0.0214
      5 C         141.1696  143.2907  165.5898 C.3     1  UNL1        0.0072
      6 C         140.4501  142.9243  164.3257 C.3     1  UNL1        0.0350
      7 C         139.8594  142.8214  162.9508 C.3     1  UNL1        0.0761
      8 C         139.8344  141.6633  164.8557 C.ar    1  UNL1       -0.0215
      9 C         139.0657  140.7604  163.9370 C.ar    1  UNL1       -0.0043
     10 C         138.4499  139.4994  164.4670 C.ar    1  UNL1        0.0035
     11 C         138.6028  139.1414  165.9156 C.ar    1  UNL1        0.0714
     12 C         139.3715  140.0444  166.8342 C.ar    1  UNL1        0.0035
     13 C         139.9873  141.3053  166.3043 C.ar    1  UNL1       -0.0043
     14 C         137.9870  137.8805  166.4455 C.3     1  UNL1        0.4186
     15 F         137.3713  136.6195  166.9755 F       1  UNL1       -0.1659
     16 F         138.6828  137.0914  165.3763 F       1  UNL1       -0.1659
     17 F         137.2913  138.6696  167.5147 F       1  UNL1       -0.1659
     18 C         141.0138  144.8543  159.7996 C.3     1  UNL1        0.0294
     19 C         141.6499  143.9644  158.7733 C.3     1  UNL1        0.0666
     20 S         142.9756  143.3219  159.0559 S.3     1  UNL1       -0.0756
     21 C         141.7087  140.6730  160.4799 C.3     1  UNL1        0.1340
     22 N         142.7080  141.6100  161.0913 N.ar    1  UNL1       -0.2884
     23 C         143.2903  142.8275  160.4367 C.ar    1  UNL1        0.1932
     24 N         144.2425  143.4638  161.4054 N.ar    1  UNL1       -0.1221
     25 N         144.2487  142.6396  162.6585 N.ar    1  UNL1       -0.1282
     26 C         143.3002  141.4938  162.4644 C.ar    1  UNL1        0.1668
     27 C         142.9973  140.4204  163.4675 C.ar    1  UNL1        0.0360
     28 C         143.4721  140.5613  164.8833 C.ar    1  UNL1        0.0030
     29 C         143.1691  139.4879  165.8863 C.ar    1  UNL1        0.0001
     30 C         142.3914  138.2735  165.4734 C.ar    1  UNL1        0.0000
     31 C         141.9167  138.1325  164.0575 C.ar    1  UNL1        0.0001
     32 C         142.2196  139.2060  163.0545 C.ar    1  UNL1        0.0030
@<TRIPOS>BOND
     1    21    22    1
     2    22    23   ar
     3    23    20    1
     4    20    19    1
     5    19    18    1
     6    18     1    1
     7     1     2    1
     8     2     3    1
     9     4     3    1
    10     4     5    1
    11     5     6    1
    12     6     8    1
    13     8     9   ar
    14     9    10   ar
    15    10    11   ar
    16    11    14    1
    17    14    15    1
    18    14    16    1
    19    14    17    1
    20    11    12   ar
    21    12    13   ar
    22     6     7    1
    23    23    24   ar
    24    24    25   ar
    25    25    26   ar
    26    26    27    1
    27    27    28   ar
    28    28    29   ar
    29    29    30   ar
    30    30    31   ar
    31    31    32   ar
    32    26    22   ar
    33    32    27   ar
    34     7     2    1
    35     6     4    1
    36    13     8   ar
@<TRIPOS>MOLECULE
*****
 32 36 0 0 0
SMALL
GASTEIGER

@<TRIPOS>ATOM
      1 C         141.3482  144.2756  160.0458 C.3     1  UNL1        0.0730
      2 N         140.9813  144.2381  161.4997 N.3     1  UNL1       -0.2724
      3 C         141.0188  145.3990  162.4488 C.3     1  UNL1        0.0724
      4 C         140.5731  144.9114  163.7955 C.3     1  UNL1        0.0214
      5 C         140.0988  144.1477  164.9962 C.3     1  UNL1        0.0072
      6 C         140.2601  143.4491  163.6787 C.3     1  UNL1        0.0350
      7 C         140.5124  143.0330  162.2598 C.3     1  UNL1        0.0761
      8 C         139.8249  142.0979  164.1634 C.ar    1  UNL1       -0.0215
      9 C         139.5146  141.8862  165.6156 C.ar    1  UNL1       -0.0043
     10 C         139.0793  140.5350  166.1003 C.ar    1  UNL1        0.0035
     11 C         138.9545  139.3955  165.1328 C.ar    1  UNL1        0.0714
     12 C         139.2648  139.6073  163.6806 C.ar    1  UNL1        0.0035
     13 C         139.7000  140.9585  163.1959 C.ar    1  UNL1       -0.0043
     14 C         138.5193  138.0444  165.6175 C.3     1  UNL1        0.4186
     15 F         138.0841  136.6932  166.1022 F       1  UNL1       -0.1659
     16 F         137.5160  138.6929  166.5245 F       1  UNL1       -0.1659
     17 F         139.5226  137.3959  164.7105 F       1  UNL1       -0.1659
     18 C         141.8855  143.0458  159.3758 C.3     1  UNL1        0.0294
     19 C         143.3212  142.9932  158.9445 C.3     1  UNL1        0.0666
     20 S         144.3724  142.5025  159.8954 S.3     1  UNL1       -0.0756
     21 C         143.3630  140.2345  162.0134 C.3     1  UNL1        0.1340
     22 N         143.7310  141.6501  162.3463 N.ar    1  UNL1       -0.2884
     23 C         144.1950  142.6925  161.3727 C.ar    1  UNL1        0.1932
     24 N         144.4505  143.9584  162.1358 N.ar    1  UNL1       -0.1221
     25 N         144.1444  143.6983  163.5809 N.ar    1  UNL1       -0.1282
     26 C         143.6997  142.2716  163.7110 C.ar    1  UNL1        0.1668
     27 C         143.2948  141.5867  164.9827 C.ar    1  UNL1        0.0360
     28 C         143.1922  142.3711  166.2571 C.ar    1  UNL1        0.0030
     29 C         142.7873  141.6862  167.5288 C.ar    1  UNL1        0.0001
     30 C         142.4850  140.2170  167.5259 C.ar    1  UNL1        0.0000
     31 C         142.5877  139.4326  166.2515 C.ar    1  UNL1        0.0001
     32 C         142.9926  140.1175  164.9799 C.ar    1  UNL1        0.0030
@<TRIPOS>BOND
     1    21    22    1
     2    22    23   ar
     3    23    20    1
     4    20    19    1
     5    19    18    1
     6    18     1    1
     7     1     2    1
     8     2     3    1
     9     4     3    1
    10     4     5    1
    11     5     6    1
    12     6     8    1
    13     8     9   ar
    14     9    10   ar
    15    10    11   ar
    16    11    14    1
    17    14    15    1
    18    14    16    1
    19    14    17    1
    20    11    12   ar
    21    12    13   ar
    22     6     7    1
    23    23    24   ar
    24    24    25   ar
    25    25    26   ar
    26    26    27    1
    27    27    28   ar
    28    28    29   ar
    29    29    30   ar
    30    30    31   ar
    31    31    32   ar
    32    26    22   ar
    33    32    27   ar
    34     7     2    1
    35     6     4    1
    36    13     8   ar
@<TRIPOS>MOLECULE
*****
 32 36 0 0 0
SMALL
GASTEIGER

@<TRIPOS>ATOM
      1 C         140.8580  137.3177  163.4036 C.3     1  UNL1        0.0730
      2 N         140.1283  137.9261  164.5643 N.3     1  UNL1       -0.2724
      3 C         138.6808  137.7219  164.9007 C.3     1  UNL1        0.0724
      4 C         138.3758  138.5150  166.1368 C.3     1  UNL1        0.0214
      5 C         138.3733  139.3890  167.3558 C.3     1  UNL1        0.0072
      6 C         139.6348  139.2094  166.5644 C.3     1  UNL1        0.0350
      7 C         140.7178  138.8454  165.5926 C.3     1  UNL1        0.0761
      8 C         140.4881  140.0911  167.4272 C.ar    1  UNL1       -0.0215
      9 C         141.8980  139.6905  167.7461 C.ar    1  UNL1       -0.0043
     10 C         142.7513  140.5722  168.6089 C.ar    1  UNL1        0.0035
     11 C         142.1948  141.8546  169.1528 C.ar    1  UNL1        0.0714
     12 C         140.7848  142.2552  168.8338 C.ar    1  UNL1        0.0035
     13 C         139.9315  141.3735  167.9711 C.ar    1  UNL1       -0.0043
     14 C         143.0481  142.7363  170.0155 C.3     1  UNL1        0.4186
     15 F         143.9014  143.6180  170.8783 F       1  UNL1       -0.1659
     16 F         141.9668  143.7759  170.0224 F       1  UNL1       -0.1659
     17 F         144.1293  141.6967  170.0086 F       1  UNL1       -0.1659
     18 C         140.5543  137.7704  162.0062 C.3     1  UNL1        0.0294
     19 C         139.1820  138.2677  161.6605 C.3     1  UNL1        0.0666
     20 S         138.9379  139.7379  161.4898 S.3     1  UNL1       -0.0756
     21 C         141.9933  140.8453  161.7859 C.3     1  UNL1        0.1340
     22 N         140.8331  141.2140  162.6623 N.ar    1  UNL1       -0.2884
     23 C         139.4287  140.7049  162.5262 C.ar    1  UNL1        0.1932
     24 N         138.6012  141.3327  163.6084 N.ar    1  UNL1       -0.1221
     25 N         139.4942  142.2296  164.4133 N.ar    1  UNL1       -0.1282
     26 C         140.8736  142.1562  163.8286 C.ar    1  UNL1        0.1668
     27 C         142.0814  142.8955  164.3234 C.ar    1  UNL1        0.0360
     28 C         142.8938  142.3342  165.4526 C.ar    1  UNL1        0.0030
     29 C         144.1016  143.0735  165.9473 C.ar    1  UNL1        0.0001
     30 C         144.4970  144.3739  165.3129 C.ar    1  UNL1        0.0000
     31 C         143.6847  144.9351  164.1837 C.ar    1  UNL1        0.0001
     32 C         142.4769  144.1959  163.6890 C.ar    1  UNL1        0.0030
@<TRIPOS>BOND
     1    21    22    1
     2    22    23   ar
     3    23    20    1
     4    20    19    1
     5    19    18    1
     6    18     1    1
     7     1     2    1
     8     2     3    1
     9     4     3    1
    10     4     5    1
    11     5     6    1
    12     6     8    1
    13     8     9   ar
    14     9    10   ar
    15    10    11   ar
    16    11    14    1
    17    14    15    1
    18    14    16    1
    19    14    17    1
    20    11    12   ar
    21    12    13   ar
    22     6     7    1
    23    23    24   ar
    24    24    25   ar
    25    25    26   ar
    26    26    27    1
    27    27    28   ar
    28    28    29   ar
    29    29    30   ar
    30    30    31   ar
    31    31    32   ar
    32    26    22   ar
    33    32    27   ar
    34     7     2    1
    35     6     4    1
    36    13     8   ar
@<TRIPOS>MOLECULE
*****
 32 36 0 0 0
SMALL
GASTEIGER

@<TRIPOS>ATOM
      1 C         138.8588  141.4198  159.7181 C.3     1  UNL1        0.0730
      2 N         138.7933  141.0836  161.1785 N.3     1  UNL1       -0.2724
      3 C         137.5814  141.1949  162.0554 C.3     1  UNL1        0.0724
      4 C         137.9673  140.7570  163.4372 C.3     1  UNL1        0.0214
      5 C         138.6357  140.2749  164.6904 C.3     1  UNL1        0.0072
      6 C         139.4177  140.3751  163.4143 C.3     1  UNL1        0.0350
      7 C         139.9281  140.5769  162.0184 C.3     1  UNL1        0.0761
      8 C         140.7160  139.8894  163.9874 C.ar    1  UNL1       -0.0215
      9 C         140.7597  139.3330  165.3797 C.ar    1  UNL1       -0.0043
     10 C         142.0581  138.8473  165.9528 C.ar    1  UNL1        0.0035
     11 C         143.3127  138.9180  165.1336 C.ar    1  UNL1        0.0714
     12 C         143.2689  139.4745  163.7413 C.ar    1  UNL1        0.0035
     13 C         141.9706  139.9602  163.1682 C.ar    1  UNL1       -0.0043
     14 C         144.6110  138.4324  165.7067 C.3     1  UNL1        0.4186
     15 F         145.9093  137.9467  166.2798 F       1  UNL1       -0.1659
     16 F         145.3615  139.2199  164.6740 F       1  UNL1       -0.1659
     17 F         143.8606  137.6448  166.7394 F       1  UNL1       -0.1659
     18 C         138.6838  142.8395  159.2668 C.3     1  UNL1        0.0294
     19 C         139.8861  143.6859  158.9703 C.3     1  UNL1        0.0666
     20 S         140.3062  144.7559  159.9340 S.3     1  UNL1       -0.0756
     21 C         142.4790  143.3183  161.8991 C.3     1  UNL1        0.1340
     22 N         141.1503  143.8778  162.3134 N.ar    1  UNL1       -0.2884
     23 C         140.1516  144.5386  161.4101 C.ar    1  UNL1        0.1932
     24 N         138.9711  144.9438  162.2421 N.ar    1  UNL1       -0.1221
     25 N         139.2403  144.5335  163.6595 N.ar    1  UNL1       -0.1282
     26 C         140.5871  143.8746  163.7035 C.ar    1  UNL1        0.1668
     27 C         141.2537  143.3115  164.9237 C.ar    1  UNL1        0.0360
     28 C         140.4403  142.9924  166.1429 C.ar    1  UNL1        0.0030
     29 C         141.1069  142.4293  167.3629 C.ar    1  UNL1        0.0001
     30 C         142.5869  142.1852  167.3638 C.ar    1  UNL1        0.0000
     31 C         143.4003  142.5042  166.1446 C.ar    1  UNL1        0.0001
     32 C         142.7337  143.0674  164.9245 C.ar    1  UNL1        0.0030
@<TRIPOS>BOND
     1    21    22    1
     2    22    23   ar
     3    23    20    1
     4    20    19    1
     5    19    18    1
     6    18     1    1
     7     1     2    1
     8     2     3    1
     9     4     3    1
    10     4     5    1
    11     5     6    1
    12     6     8    1
    13     8     9   ar
    14     9    10   ar
    15    10    11   ar
    16    11    14    1
    17    14    15    1
    18    14    16    1
    19    14    17    1
    20    11    12   ar
    21    12    13   ar
    22     6     7    1
    23    23    24   ar
    24    24    25   ar
    25    25    26   ar
    26    26    27    1
    27    27    28   ar
    28    28    29   ar
    29    29    30   ar
    30    30    31   ar
    31    31    32   ar
    32    26    22   ar
    33    32    27   ar
    34     7     2    1
    35     6     4    1
    36    13     8   ar
@<TRIPOS>MOLECULE
*****
 32 36 0 0 0
SMALL
GASTEIGER

@<TRIPOS>ATOM
      1 C         141.2997  142.8976  160.1535 C.3     1  UNL1        0.0730
      2 N         141.4952  141.5027  160.6693 N.3     1  UNL1       -0.2724
      3 C         142.4591  140.4893  160.1273 C.3     1  UNL1        0.0724
      4 C         142.3209  139.2366  160.9407 C.3     1  UNL1        0.0214
      5 C         141.9656  138.1482  161.9098 C.3     1  UNL1        0.0072
      6 C         141.2715  139.4758  161.9855 C.3     1  UNL1        0.0350
      7 C         140.7613  140.8764  161.8178 C.3     1  UNL1        0.0761
      8 C         140.3924  139.1270  163.1498 C.ar    1  UNL1       -0.0215
      9 C         139.3242  140.0812  163.5953 C.ar    1  UNL1       -0.0043
     10 C         138.4451  139.7325  164.7597 C.ar    1  UNL1        0.0035
     11 C         138.6342  138.4295  165.4784 C.ar    1  UNL1        0.0714
     12 C         139.7025  137.4753  165.0328 C.ar    1  UNL1        0.0035
     13 C         140.5815  137.8241  163.8685 C.ar    1  UNL1       -0.0043
     14 C         137.7551  138.0807  166.6427 C.3     1  UNL1        0.4186
     15 F         136.8760  137.7319  167.8069 F       1  UNL1       -0.1659
     16 F         137.8342  136.6304  166.2679 F       1  UNL1       -0.1659
     17 F         137.6760  139.5310  167.0174 F       1  UNL1       -0.1659
     18 C         140.0956  143.6893  160.5698 C.3     1  UNL1        0.0294
     19 C         140.2282  145.1521  160.8741 C.3     1  UNL1        0.0666
     20 S         140.3518  145.6141  162.2959 S.3     1  UNL1       -0.0756
     21 C         138.9550  143.4416  164.2905 C.3     1  UNL1        0.1340
     22 N         140.4191  143.7602  164.2203 N.ar    1  UNL1       -0.2884
     23 C         141.0611  144.7588  163.3035 C.ar    1  UNL1        0.1932
     24 N         142.5370  144.7519  163.5712 N.ar    1  UNL1       -0.1221
     25 N         142.8071  143.7491  164.6534 N.ar    1  UNL1       -0.1282
     26 C         141.4981  143.1362  165.0546 C.ar    1  UNL1        0.1668
     27 C         141.3026  142.0839  166.1057 C.ar    1  UNL1        0.0360
     28 C         142.0182  140.7703  165.9941 C.ar    1  UNL1        0.0030
     29 C         141.8226  139.7182  167.0451 C.ar    1  UNL1        0.0001
     30 C         140.9115  139.9795  168.2077 C.ar    1  UNL1        0.0000
     31 C         140.1960  141.2931  168.3193 C.ar    1  UNL1        0.0001
     32 C         140.3915  142.3453  167.2683 C.ar    1  UNL1        0.0030
@<TRIPOS>BOND
     1    21    22    1
     2    22    23   ar
     3    23    20    1
     4    20    19    1
     5    19    18    1
     6    18     1    1
     7     1     2    1
     8     2     3    1
     9     4     3    1
    10     4     5    1
    11     5     6    1
    12     6     8    1
    13     8     9   ar
    14     9    10   ar
    15    10    11   ar
    16    11    14    1
    17    14    15    1
    18    14    16    1
    19    14    17    1
    20    11    12   ar
    21    12    13   ar
    22     6     7    1
    23    23    24   ar
    24    24    25   ar
    25    25    26   ar
    26    26    27    1
    27    27    28   ar
    28    28    29   ar
    29    29    30   ar
    30    30    31   ar
    31    31    32   ar
    32    26    22   ar
    33    32    27   ar
    34     7     2    1
    35     6     4    1
    36    13     8   ar
