@<TRIPOS>MOLECULE
*****
 32 36 0 0 0
SMALL
GASTEIGER

@<TRIPOS>ATOM
      1 N         142.0700  138.4381  158.5229 N.ar    1  UNL1       -0.2286
      2 C         141.1471  139.6026  158.3176 C.ar    1  UNL1        0.0990
      3 C         140.6572  140.0487  159.6634 C.ar    1  UNL1        0.0338
      4 C         141.2774  139.1599  160.7004 C.ar    1  UNL1        0.0981
      5 N         142.1506  138.1645  159.9956 N.ar    1  UNL1       -0.1680
      6 C         140.7875  139.6059  162.0462 C.3     1  UNL1        0.1414
      7 N         139.8645  140.7704  161.8409 N.am    1  UNL1       -0.2661
      8 C         139.1480  141.5282  162.9189 C.2     1  UNL1        0.2496
      9 O         138.2525  142.6769  162.5598 O.2     1  UNL1       -0.2699
     10 C         139.7840  141.0440  160.3682 C.3     1  UNL1        0.1236
     11 C         143.6324  133.9271  156.4713 C.3     1  UNL1        0.0521
     12 C         143.5679  135.4247  156.4191 C.ar    1  UNL1        0.0609
     13 C         142.8513  136.1826  157.4971 C.ar    1  UNL1        0.0339
     14 C         142.7867  137.6803  157.4449 C.ar    1  UNL1        0.0855
     15 C         143.4387  138.4202  156.3146 C.ar    1  UNL1        0.0398
     16 C         144.1553  137.6623  155.2366 C.ar    1  UNL1        0.1000
     17 N         144.2199  136.1646  155.2888 N.ar    1  UNL1       -0.2480
     18 C         139.3267  141.1374  164.3560 C.ar    1  UNL1        0.0543
     19 C         138.4378  140.0943  164.9657 C.ar    1  UNL1        0.0148
     20 C         138.6166  139.7035  166.4029 C.ar    1  UNL1        0.0686
     21 C         139.6842  140.3557  167.2303 C.ar    1  UNL1        0.0103
     22 C         140.5732  141.3989  166.6206 C.ar    1  UNL1        0.0008
     23 C         140.3944  141.7897  165.1835 C.ar    1  UNL1        0.0045
     24 C         141.2833  142.8328  164.5737 C.ar    1  UNL1        0.0024
     25 C         140.8065  144.2503  164.4586 C.ar    1  UNL1        0.0001
     26 C         141.6954  145.2934  163.8488 C.ar    1  UNL1        0.0023
     27 C         143.0611  144.9190  163.3543 C.ar    1  UNL1        0.0296
     28 C         143.5380  143.5015  163.4694 C.ar    1  UNL1        0.1401
     29 F         144.9037  143.1271  162.9748 F       1  UNL1       -0.2042
     30 C         142.6491  142.4583  164.0791 C.ar    1  UNL1        0.0296
     31 C         137.7276  138.6604  167.0125 C.1     1  UNL1        0.1004
     32 N         136.8386  137.6174  167.6222 N.1     1  UNL1       -0.1908
@<TRIPOS>BOND
     1    11    12    1
     2    12    13   ar
     3    13    14   ar
     4    14     1    1
     5     1     2   ar
     6     2     3   ar
     7     3     4   ar
     8     4     5   ar
     9     4     6    1
    10     6     7    1
    11     7     8   am
    12     8     9    2
    13     8    18    1
    14    18    19   ar
    15    19    20   ar
    16    20    31    1
    17    31    32    3
    18    20    21   ar
    19    21    22   ar
    20    22    23   ar
    21    23    24    1
    22    24    25   ar
    23    25    26   ar
    24    26    27   ar
    25    27    28   ar
    26    28    29    1
    27    28    30   ar
    28     7    10    1
    29    14    15   ar
    30    15    16   ar
    31    16    17   ar
    32    17    12   ar
    33     5     1   ar
    34    23    18   ar
    35    30    24   ar
    36    10     3    1
@<TRIPOS>MOLECULE
*****
 32 36 0 0 0
SMALL
GASTEIGER

@<TRIPOS>ATOM
      1 N         141.6547  138.7267  159.8007 N.ar    1  UNL1       -0.2286
      2 C         142.4473  139.9802  160.0250 C.ar    1  UNL1        0.0990
      3 C         142.3606  140.3291  161.4813 C.ar    1  UNL1        0.0338
      4 C         141.5144  139.2912  162.1570 C.ar    1  UNL1        0.0981
      5 N         141.0780  138.3008  161.1183 N.ar    1  UNL1       -0.1680
      6 C         141.4276  139.6400  163.6133 C.3     1  UNL1        0.1414
      7 N         142.2204  140.8936  163.8376 N.am    1  UNL1       -0.2661
      8 C         142.4041  141.5977  165.1493 C.2     1  UNL1        0.2496
      9 O         143.2290  142.8486  165.2200 O.2     1  UNL1       -0.2699
     10 C         142.7969  141.3194  162.5199 C.3     1  UNL1        0.1236
     11 C         143.5733  135.8133  155.9496 C.3     1  UNL1        0.0521
     12 C         142.4302  136.5659  156.5634 C.ar    1  UNL1        0.0609
     13 C         142.6139  137.2700  157.8751 C.ar    1  UNL1        0.0339
     14 C         141.4708  138.0226  158.4890 C.ar    1  UNL1        0.0855
     15 C         140.1439  138.0711  157.7912 C.ar    1  UNL1        0.0398
     16 C         139.9602  137.3670  156.4795 C.ar    1  UNL1        0.1000
     17 N         141.1033  136.6144  155.8657 N.ar    1  UNL1       -0.2480
     18 C         141.7632  141.0509  166.3903 C.ar    1  UNL1        0.0543
     19 C         142.5421  140.1497  167.3020 C.ar    1  UNL1        0.0148
     20 C         141.9011  139.6029  168.5431 C.ar    1  UNL1        0.0686
     21 C         140.4813  139.9572  168.8724 C.ar    1  UNL1        0.0103
     22 C         139.7023  140.8584  167.9607 C.ar    1  UNL1        0.0008
     23 C         140.3433  141.4052  166.7197 C.ar    1  UNL1        0.0045
     24 C         139.5644  142.3064  165.8080 C.ar    1  UNL1        0.0024
     25 C         139.6756  143.7954  165.9508 C.ar    1  UNL1        0.0001
     26 C         138.8967  144.6966  165.0391 C.ar    1  UNL1        0.0023
     27 C         138.0066  144.1087  163.9846 C.ar    1  UNL1        0.0296
     28 C         137.8954  142.6198  163.8416 C.ar    1  UNL1        0.1401
     29 F         137.0053  142.0319  162.7871 F       1  UNL1       -0.2042
     30 C         138.6743  141.7185  164.7534 C.ar    1  UNL1        0.0296
     31 C         142.6801  138.7017  169.4547 C.1     1  UNL1        0.1004
     32 N         143.4590  137.8005  170.3664 N.1     1  UNL1       -0.1908
@<TRIPOS>BOND
     1    11    12    1
     2    12    13   ar
     3    13    14   ar
     4    14     1    1
     5     1     2   ar
     6     2     3   ar
     7     3     4   ar
     8     4     5   ar
     9     4     6    1
    10     6     7    1
    11     7     8   am
    12     8     9    2
    13     8    18    1
    14    18    19   ar
    15    19    20   ar
    16    20    31    1
    17    31    32    3
    18    20    21   ar
    19    21    22   ar
    20    22    23   ar
    21    23    24    1
    22    24    25   ar
    23    25    26   ar
    24    26    27   ar
    25    27    28   ar
    26    28    29    1
    27    28    30   ar
    28     7    10    1
    29    14    15   ar
    30    15    16   ar
    31    16    17   ar
    32    17    12   ar
    33     5     1   ar
    34    23    18   ar
    35    30    24   ar
    36    10     3    1
@<TRIPOS>MOLECULE
*****
 32 36 0 0 0
SMALL
GASTEIGER

@<TRIPOS>ATOM
      1 N         139.9662  143.3754  160.3642 N.ar    1  UNL1       -0.2286
      2 C         139.4921  141.9881  160.6811 C.ar    1  UNL1        0.0990
      3 C         139.7924  141.7141  162.1250 C.ar    1  UNL1        0.0338
      4 C         140.4520  142.9322  162.7005 C.ar    1  UNL1        0.0981
      5 N         140.5595  143.9589  161.6122 N.ar    1  UNL1       -0.1680
      6 C         140.7523  142.6583  164.1443 C.3     1  UNL1        0.1414
      7 N         140.2782  141.2708  164.4613 N.am    1  UNL1       -0.2661
      8 C         140.3796  140.5870  165.7924 C.2     1  UNL1        0.2496
      9 O         139.8590  139.1902  165.9597 O.2     1  UNL1       -0.2699
     10 C         139.6849  140.6874  163.2132 C.3     1  UNL1        0.1236
     11 C         138.6400  143.2715  155.3412 C.3     1  UNL1        0.0521
     12 C         139.2017  144.0073  156.5215 C.ar    1  UNL1        0.0609
     13 C         139.3031  143.3235  157.8527 C.ar    1  UNL1        0.0339
     14 C         139.8648  144.0593  159.0330 C.ar    1  UNL1        0.0855
     15 C         140.3251  145.4789  158.8821 C.ar    1  UNL1        0.0398
     16 C         140.2237  146.1627  157.5509 C.ar    1  UNL1        0.1000
     17 N         139.6620  145.4269  156.3706 N.ar    1  UNL1       -0.2480
     18 C         141.0016  141.3000  166.9564 C.ar    1  UNL1        0.0543
     19 C         140.1361  141.8280  168.0619 C.ar    1  UNL1        0.0148
     20 C         140.7581  142.5409  169.2260 C.ar    1  UNL1        0.0686
     21 C         142.2455  142.7259  169.2844 C.ar    1  UNL1        0.0103
     22 C         143.1110  142.1978  168.1789 C.ar    1  UNL1        0.0008
     23 C         142.4890  141.4849  167.0149 C.ar    1  UNL1        0.0045
     24 C         143.3545  140.9569  165.9094 C.ar    1  UNL1        0.0024
     25 C         143.4535  139.4786  165.6753 C.ar    1  UNL1        0.0001
     26 C         144.3189  138.9506  164.5698 C.ar    1  UNL1        0.0023
     27 C         145.0853  139.9009  163.6983 C.ar    1  UNL1        0.0296
     28 C         144.9864  141.3792  163.9323 C.ar    1  UNL1        0.1401
     29 F         145.7528  142.3295  163.0608 F       1  UNL1       -0.2042
     30 C         144.1209  141.9073  165.0378 C.ar    1  UNL1        0.0296
     31 C         139.8926  143.0689  170.3314 C.1     1  UNL1        0.1004
     32 N         139.0271  143.5970  171.4369 N.1     1  UNL1       -0.1908
@<TRIPOS>BOND
     1    11    12    1
     2    12    13   ar
     3    13    14   ar
     4    14     1    1
     5     1     2   ar
     6     2     3   ar
     7     3     4   ar
     8     4     5   ar
     9     4     6    1
    10     6     7    1
    11     7     8   am
    12     8     9    2
    13     8    18    1
    14    18    19   ar
    15    19    20   ar
    16    20    31    1
    17    31    32    3
    18    20    21   ar
    19    21    22   ar
    20    22    23   ar
    21    23    24    1
    22    24    25   ar
    23    25    26   ar
    24    26    27   ar
    25    27    28   ar
    26    28    29    1
    27    28    30   ar
    28     7    10    1
    29    14    15   ar
    30    15    16   ar
    31    16    17   ar
    32    17    12   ar
    33     5     1   ar
    34    23    18   ar
    35    30    24   ar
    36    10     3    1
@<TRIPOS>MOLECULE
*****
 32 36 0 0 0
SMALL
GASTEIGER

@<TRIPOS>ATOM
      1 N         142.0723  138.7802  159.6450 N.ar    1  UNL1       -0.2286
      2 C         140.6244  138.8096  160.0356 C.ar    1  UNL1        0.0990
      3 C         140.5407  139.2279  161.4736 C.ar    1  UNL1        0.0338
      4 C         141.9369  139.4570  161.9718 C.ar    1  UNL1        0.0981
      5 N         142.8835  139.1803  160.8416 N.ar    1  UNL1       -0.1680
      6 C         141.8533  139.8753  163.4098 C.3     1  UNL1        0.1414
      7 N         140.4053  139.9047  163.8005 N.am    1  UNL1       -0.2661
      8 C         139.8636  140.2700  165.1507 C.2     1  UNL1        0.2496
      9 O         138.3836  140.2543  165.3945 O.2     1  UNL1       -0.2699
     10 C         139.5941  139.5046  162.6038 C.3     1  UNL1        0.1236
     11 C         143.3318  135.1678  156.1286 C.3     1  UNL1        0.0521
     12 C         143.2438  136.6086  156.5365 C.ar    1  UNL1        0.0609
     13 C         142.7021  136.9741  157.8867 C.ar    1  UNL1        0.0339
     14 C         142.6140  138.4148  158.2947 C.ar    1  UNL1        0.0855
     15 C         143.0677  139.4902  157.3525 C.ar    1  UNL1        0.0398
     16 C         143.6094  139.1247  156.0023 C.ar    1  UNL1        0.1000
     17 N         143.6974  137.6840  155.5943 N.ar    1  UNL1       -0.2480
     18 C         140.8019  140.6511  166.2572 C.ar    1  UNL1        0.0543
     19 C         141.2933  139.6079  167.2164 C.ar    1  UNL1        0.0148
     20 C         142.2317  139.9890  168.3230 C.ar    1  UNL1        0.0686
     21 C         142.6785  141.4132  168.4703 C.ar    1  UNL1        0.0103
     22 C         142.1871  142.4565  167.5110 C.ar    1  UNL1        0.0008
     23 C         141.2488  142.0754  166.4045 C.ar    1  UNL1        0.0045
     24 C         140.7574  143.1187  165.4453 C.ar    1  UNL1        0.0024
     25 C         139.4197  143.7630  165.6585 C.ar    1  UNL1        0.0001
     26 C         138.9283  144.8062  164.6992 C.ar    1  UNL1        0.0023
     27 C         139.7745  145.2051  163.5268 C.ar    1  UNL1        0.0296
     28 C         141.1122  144.5609  163.3134 C.ar    1  UNL1        0.1401
     29 F         141.9584  144.9597  162.1410 F       1  UNL1       -0.2042
     30 C         141.6037  143.5176  164.2727 C.ar    1  UNL1        0.0296
     31 C         142.7230  138.9457  169.2822 C.1     1  UNL1        0.1004
     32 N         143.2142  137.9023  170.2414 N.1     1  UNL1       -0.1908
@<TRIPOS>BOND
     1    11    12    1
     2    12    13   ar
     3    13    14   ar
     4    14     1    1
     5     1     2   ar
     6     2     3   ar
     7     3     4   ar
     8     4     5   ar
     9     4     6    1
    10     6     7    1
    11     7     8   am
    12     8     9    2
    13     8    18    1
    14    18    19   ar
    15    19    20   ar
    16    20    31    1
    17    31    32    3
    18    20    21   ar
    19    21    22   ar
    20    22    23   ar
    21    23    24    1
    22    24    25   ar
    23    25    26   ar
    24    26    27   ar
    25    27    28   ar
    26    28    29    1
    27    28    30   ar
    28     7    10    1
    29    14    15   ar
    30    15    16   ar
    31    16    17   ar
    32    17    12   ar
    33     5     1   ar
    34    23    18   ar
    35    30    24   ar
    36    10     3    1
@<TRIPOS>MOLECULE
*****
 32 36 0 0 0
SMALL
GASTEIGER

@<TRIPOS>ATOM
      1 N         139.1677  142.4073  158.3713 N.ar    1  UNL1       -0.2286
      2 C         140.0766  141.2197  158.2555 C.ar    1  UNL1        0.0990
      3 C         140.3315  140.6946  159.6373 C.ar    1  UNL1        0.0338
      4 C         139.5801  141.5577  160.6071 C.ar    1  UNL1        0.0981
      5 N         138.8608  142.6162  159.8247 N.ar    1  UNL1       -0.1680
      6 C         139.8349  141.0326  161.9889 C.3     1  UNL1        0.1414
      7 N         140.7439  139.8449  161.8731 N.am    1  UNL1       -0.2661
      8 C         141.2560  139.0124  163.0108 C.2     1  UNL1        0.2496
      9 O         142.1628  137.8486  162.7399 O.2     1  UNL1       -0.2699
     10 C         141.0507  139.6361  160.4197 C.3     1  UNL1        0.1236
     11 C         139.6395  146.5288  155.2424 C.3     1  UNL1        0.0521
     12 C         138.8915  145.3007  155.6690 C.ar    1  UNL1        0.0609
     13 C         139.4036  144.4680  156.8068 C.ar    1  UNL1        0.0339
     14 C         138.6556  143.2399  157.2335 C.ar    1  UNL1        0.0855
     15 C         137.3955  142.8443  156.5225 C.ar    1  UNL1        0.0398
     16 C         136.8834  143.6770  155.3847 C.ar    1  UNL1        0.1000
     17 N         137.6314  144.9051  154.9580 N.ar    1  UNL1       -0.2480
     18 C         140.8613  139.3436  164.4196 C.ar    1  UNL1        0.0543
     19 C         139.6129  138.7549  165.0067 C.ar    1  UNL1        0.0148
     20 C         139.2182  139.0861  166.4156 C.ar    1  UNL1        0.0686
     21 C         140.0719  140.0058  167.2371 C.ar    1  UNL1        0.0103
     22 C         141.3205  140.5945  166.6500 C.ar    1  UNL1        0.0008
     23 C         141.7151  140.2634  165.2412 C.ar    1  UNL1        0.0045
     24 C         142.9636  140.8520  164.6540 C.ar    1  UNL1        0.0024
     25 C         144.2309  140.0500  164.6286 C.ar    1  UNL1        0.0001
     26 C         145.4794  140.6386  164.0415 C.ar    1  UNL1        0.0023
     27 C         145.4605  142.0293  163.4797 C.ar    1  UNL1        0.0296
     28 C         144.1933  142.8314  163.5051 C.ar    1  UNL1        0.1401
     29 F         144.1745  144.2221  162.9433 F       1  UNL1       -0.2042
     30 C         142.9448  142.2428  164.0923 C.ar    1  UNL1        0.0296
     31 C         137.9697  138.4973  167.0026 C.1     1  UNL1        0.1004
     32 N         136.7212  137.9085  167.5897 N.1     1  UNL1       -0.1908
@<TRIPOS>BOND
     1    11    12    1
     2    12    13   ar
     3    13    14   ar
     4    14     1    1
     5     1     2   ar
     6     2     3   ar
     7     3     4   ar
     8     4     5   ar
     9     4     6    1
    10     6     7    1
    11     7     8   am
    12     8     9    2
    13     8    18    1
    14    18    19   ar
    15    19    20   ar
    16    20    31    1
    17    31    32    3
    18    20    21   ar
    19    21    22   ar
    20    22    23   ar
    21    23    24    1
    22    24    25   ar
    23    25    26   ar
    24    26    27   ar
    25    27    28   ar
    26    28    29    1
    27    28    30   ar
    28     7    10    1
    29    14    15   ar
    30    15    16   ar
    31    16    17   ar
    32    17    12   ar
    33     5     1   ar
    34    23    18   ar
    35    30    24   ar
    36    10     3    1
@<TRIPOS>MOLECULE
*****
 32 36 0 0 0
SMALL
GASTEIGER

@<TRIPOS>ATOM
      1 N         141.9606  143.7288  159.8251 N.ar    1  UNL1       -0.2286
      2 C         143.0420  142.7098  160.0309 C.ar    1  UNL1        0.0990
      3 C         142.9436  142.2080  161.4410 C.ar    1  UNL1        0.0338
      4 C         141.8015  142.9168  162.1067 C.ar    1  UNL1        0.0981
      5 N         141.1940  143.8567  161.1080 N.ar    1  UNL1       -0.1680
      6 C         141.7031  142.4150  163.5168 C.3     1  UNL1        0.1414
      7 N         142.7845  141.3960  163.7227 N.am    1  UNL1       -0.2661
      8 C         143.0522  140.6380  164.9891 C.2     1  UNL1        0.2496
      9 O         144.1752  139.6451  165.0459 O.2     1  UNL1       -0.2699
     10 C         143.5511  141.2681  162.4397 C.3     1  UNL1        0.1236
     11 C         139.1573  147.2047  157.1681 C.3     1  UNL1        0.0521
     12 C         140.2912  146.2248  157.2301 C.ar    1  UNL1        0.0609
     13 C         140.5590  145.4667  158.4965 C.ar    1  UNL1        0.0339
     14 C         141.6929  144.4868  158.5586 C.ar    1  UNL1        0.0855
     15 C         142.5592  144.2648  157.3543 C.ar    1  UNL1        0.0398
     16 C         142.2914  145.0228  156.0879 C.ar    1  UNL1        0.1000
     17 N         141.1574  146.0028  156.0258 N.ar    1  UNL1       -0.2480
     18 C         142.1969  140.8729  166.1988 C.ar    1  UNL1        0.0543
     19 C         142.6983  141.7408  167.3147 C.ar    1  UNL1        0.0148
     20 C         141.8430  141.9757  168.5245 C.ar    1  UNL1        0.0686
     21 C         140.4865  141.3427  168.6183 C.ar    1  UNL1        0.0103
     22 C         139.9850  140.4747  167.5023 C.ar    1  UNL1        0.0008
     23 C         140.8403  140.2398  166.2926 C.ar    1  UNL1        0.0045
     24 C         140.3389  139.3719  165.1767 C.ar    1  UNL1        0.0024
     25 C         140.9832  138.0433  164.9124 C.ar    1  UNL1        0.0001
     26 C         140.4818  137.1754  163.7965 C.ar    1  UNL1        0.0023
     27 C         139.3361  137.6360  162.9449 C.ar    1  UNL1        0.0296
     28 C         138.6918  138.9645  163.2091 C.ar    1  UNL1        0.1401
     29 F         137.5461  139.4251  162.3574 F       1  UNL1       -0.2042
     30 C         139.1932  139.8325  164.3250 C.ar    1  UNL1        0.0296
     31 C         142.3445  142.8437  169.6403 C.1     1  UNL1        0.1004
     32 N         142.8461  143.7116  170.7561 N.1     1  UNL1       -0.1908
@<TRIPOS>BOND
     1    11    12    1
     2    12    13   ar
     3    13    14   ar
     4    14     1    1
     5     1     2   ar
     6     2     3   ar
     7     3     4   ar
     8     4     5   ar
     9     4     6    1
    10     6     7    1
    11     7     8   am
    12     8     9    2
    13     8    18    1
    14    18    19   ar
    15    19    20   ar
    16    20    31    1
    17    31    32    3
    18    20    21   ar
    19    21    22   ar
    20    22    23   ar
    21    23    24    1
    22    24    25   ar
    23    25    26   ar
    24    26    27   ar
    25    27    28   ar
    26    28    29    1
    27    28    30   ar
    28     7    10    1
    29    14    15   ar
    30    15    16   ar
    31    16    17   ar
    32    17    12   ar
    33     5     1   ar
    34    23    18   ar
    35    30    24   ar
    36    10     3    1
@<TRIPOS>MOLECULE
*****
 32 36 0 0 0
SMALL
GASTEIGER

@<TRIPOS>ATOM
      1 N         138.9810  141.2887  159.5047 N.ar    1  UNL1       -0.2286
      2 C         139.6706  139.9703  159.6953 C.ar    1  UNL1        0.0990
      3 C         140.1121  139.8808  161.1261 C.ar    1  UNL1        0.0338
      4 C         139.6954  141.1438  161.8197 C.ar    1  UNL1        0.0981
      5 N         138.9964  142.0140  160.8176 N.ar    1  UNL1       -0.1680
      6 C         140.1369  141.0543  163.2504 C.3     1  UNL1        0.1414
      7 N         140.8265  139.7358  163.4411 N.am    1  UNL1       -0.2661
      8 C         141.4260  139.2313  164.7201 C.2     1  UNL1        0.2496
      9 O         142.0867  137.8852  164.7590 O.2     1  UNL1       -0.2699
     10 C         140.8111  139.0106  162.1282 C.3     1  UNL1        0.1236
     11 C         135.4953  140.8263  155.6789 C.3     1  UNL1        0.0521
     12 C         136.6385  141.5620  156.3127 C.ar    1  UNL1        0.0609
     13 C         137.2382  141.0575  157.5918 C.ar    1  UNL1        0.0339
     14 C         138.3814  141.7932  158.2256 C.ar    1  UNL1        0.0855
     15 C         138.9250  143.0335  157.5805 C.ar    1  UNL1        0.0398
     16 C         138.3253  143.5380  156.3014 C.ar    1  UNL1        0.1000
     17 N         137.1821  142.8023  155.6676 N.ar    1  UNL1       -0.2480
     18 C         141.3650  140.0729  165.9603 C.ar    1  UNL1        0.0543
     19 C         140.3331  139.7868  167.0107 C.ar    1  UNL1        0.0148
     20 C         140.2720  140.6284  168.2509 C.ar    1  UNL1        0.0686
     21 C         141.2428  141.7559  168.4407 C.ar    1  UNL1        0.0103
     22 C         142.2748  142.0420  167.3903 C.ar    1  UNL1        0.0008
     23 C         142.3358  141.2005  166.1501 C.ar    1  UNL1        0.0045
     24 C         143.3677  141.4865  165.0997 C.ar    1  UNL1        0.0024
     25 C         144.4010  140.4528  164.7622 C.ar    1  UNL1        0.0001
     26 C         145.4329  140.7389  163.7118 C.ar    1  UNL1        0.0023
     27 C         145.4315  142.0586  162.9989 C.ar    1  UNL1        0.0296
     28 C         144.3984  143.0924  163.3363 C.ar    1  UNL1        0.1401
     29 F         144.3970  144.4121  162.6234 F       1  UNL1       -0.2042
     30 C         143.3664  142.8064  164.3868 C.ar    1  UNL1        0.0296
     31 C         139.2401  140.3423  169.3013 C.1     1  UNL1        0.1004
     32 N         138.2082  140.0561  170.3517 N.1     1  UNL1       -0.1908
@<TRIPOS>BOND
     1    11    12    1
     2    12    13   ar
     3    13    14   ar
     4    14     1    1
     5     1     2   ar
     6     2     3   ar
     7     3     4   ar
     8     4     5   ar
     9     4     6    1
    10     6     7    1
    11     7     8   am
    12     8     9    2
    13     8    18    1
    14    18    19   ar
    15    19    20   ar
    16    20    31    1
    17    31    32    3
    18    20    21   ar
    19    21    22   ar
    20    22    23   ar
    21    23    24    1
    22    24    25   ar
    23    25    26   ar
    24    26    27   ar
    25    27    28   ar
    26    28    29    1
    27    28    30   ar
    28     7    10    1
    29    14    15   ar
    30    15    16   ar
    31    16    17   ar
    32    17    12   ar
    33     5     1   ar
    34    23    18   ar
    35    30    24   ar
    36    10     3    1
@<TRIPOS>MOLECULE
*****
 32 36 0 0 0
SMALL
GASTEIGER

@<TRIPOS>ATOM
      1 N         142.1991  137.5551  158.0839 N.ar    1  UNL1       -0.2286
      2 C         142.9845  137.4653  159.3587 C.ar    1  UNL1        0.0990
      3 C         142.3947  138.4386  160.3359 C.ar    1  UNL1        0.0338
      4 C         141.2449  139.1299  159.6651 C.ar    1  UNL1        0.0981
      5 N         141.1240  138.5838  158.2733 N.ar    1  UNL1       -0.1680
      6 C         140.6552  140.1032  160.6423 C.3     1  UNL1        0.1414
      7 N         141.4406  140.0134  161.9172 N.am    1  UNL1       -0.2661
      8 C         141.1942  140.8121  163.1626 C.2     1  UNL1        0.2496
      9 O         142.0667  140.6129  164.3664 O.2     1  UNL1       -0.2699
     10 C         142.5157  138.9846  161.7278 C.3     1  UNL1        0.1236
     11 C         143.8794  133.2092  155.7840 C.3     1  UNL1        0.0521
     12 C         143.2857  134.5833  155.6884 C.ar    1  UNL1        0.0609
     13 C         143.0392  135.3822  156.9339 C.ar    1  UNL1        0.0339
     14 C         142.4455  136.7563  156.8384 C.ar    1  UNL1        0.0855
     15 C         142.0982  137.3318  155.4974 C.ar    1  UNL1        0.0398
     16 C         142.3447  136.5329  154.2520 C.ar    1  UNL1        0.1000
     17 N         142.9384  135.1587  154.3474 N.ar    1  UNL1       -0.2480
     18 C         140.0752  141.8102  163.2044 C.ar    1  UNL1        0.0543
     19 C         140.2434  143.1530  162.5575 C.ar    1  UNL1        0.0148
     20 C         139.1243  144.1511  162.5993 C.ar    1  UNL1        0.0686
     21 C         137.8372  143.8064  163.2880 C.ar    1  UNL1        0.0103
     22 C         137.6690  142.4635  163.9350 C.ar    1  UNL1        0.0008
     23 C         138.7880  141.4655  163.8932 C.ar    1  UNL1        0.0045
     24 C         138.6198  140.1227  164.5401 C.ar    1  UNL1        0.0024
     25 C         138.9240  138.8741  163.7665 C.ar    1  UNL1        0.0001
     26 C         138.7558  137.5313  164.4135 C.ar    1  UNL1        0.0023
     27 C         138.2835  137.4371  165.8340 C.ar    1  UNL1        0.0296
     28 C         137.9793  138.6856  166.6077 C.ar    1  UNL1        0.1401
     29 F         137.5069  138.5914  168.0283 F       1  UNL1       -0.2042
     30 C         138.1474  140.0285  165.9608 C.ar    1  UNL1        0.0296
     31 C         139.2926  145.4939  161.9523 C.1     1  UNL1        0.1004
     32 N         139.4611  146.8366  161.3052 N.1     1  UNL1       -0.1908
@<TRIPOS>BOND
     1    11    12    1
     2    12    13   ar
     3    13    14   ar
     4    14     1    1
     5     1     2   ar
     6     2     3   ar
     7     3     4   ar
     8     4     5   ar
     9     4     6    1
    10     6     7    1
    11     7     8   am
    12     8     9    2
    13     8    18    1
    14    18    19   ar
    15    19    20   ar
    16    20    31    1
    17    31    32    3
    18    20    21   ar
    19    21    22   ar
    20    22    23   ar
    21    23    24    1
    22    24    25   ar
    23    25    26   ar
    24    26    27   ar
    25    27    28   ar
    26    28    29    1
    27    28    30   ar
    28     7    10    1
    29    14    15   ar
    30    15    16   ar
    31    16    17   ar
    32    17    12   ar
    33     5     1   ar
    34    23    18   ar
    35    30    24   ar
    36    10     3    1
@<TRIPOS>MOLECULE
*****
 32 36 0 0 0
SMALL
GASTEIGER

@<TRIPOS>ATOM
      1 N         142.9473  140.2774  159.2343 N.ar    1  UNL1       -0.2286
      2 C         141.5824  139.6862  159.4279 C.ar    1  UNL1        0.0990
      3 C         141.2060  139.8517  160.8704 C.ar    1  UNL1        0.0338
      4 C         142.3382  140.5452  161.5683 C.ar    1  UNL1        0.0981
      5 N         143.4144  140.8083  160.5571 N.ar    1  UNL1       -0.1680
      6 C         141.9618  140.7107  163.0109 C.3     1  UNL1        0.1414
      7 N         140.5968  140.1195  163.2045 N.am    1  UNL1       -0.2661
      8 C         139.8331  140.0682  164.4944 C.2     1  UNL1        0.2496
      9 O         138.4706  139.4420  164.5351 O.2     1  UNL1       -0.2699
     10 C         140.1297  139.5887  161.8816 C.3     1  UNL1        0.1236
     11 C         146.8093  142.2421  156.3664 C.3     1  UNL1        0.0521
     12 C         145.6421  141.3111  156.5103 C.ar    1  UNL1        0.0609
     13 C         144.8783  141.2597  157.8003 C.ar    1  UNL1        0.0339
     14 C         143.7110  140.3287  157.9443 C.ar    1  UNL1        0.0855
     15 C         143.3075  139.4490  156.7983 C.ar    1  UNL1        0.0398
     16 C         144.0714  139.5004  155.5083 C.ar    1  UNL1        0.1000
     17 N         145.2386  140.4314  155.3643 N.ar    1  UNL1       -0.2480
     18 C         140.4318  140.6431  165.7439 C.ar    1  UNL1        0.0543
     19 C         141.0668  139.7372  166.7568 C.ar    1  UNL1        0.0148
     20 C         141.6655  140.3121  168.0063 C.ar    1  UNL1        0.0686
     21 C         141.6292  141.7928  168.2428 C.ar    1  UNL1        0.0103
     22 C         140.9942  142.6989  167.2298 C.ar    1  UNL1        0.0008
     23 C         140.3956  142.1240  165.9804 C.ar    1  UNL1        0.0045
     24 C         139.7606  143.0299  164.9674 C.ar    1  UNL1        0.0024
     25 C         138.2813  142.9663  164.7271 C.ar    1  UNL1        0.0001
     26 C         137.6464  143.8722  163.7142 C.ar    1  UNL1        0.0023
     27 C         138.4907  144.8417  162.9414 C.ar    1  UNL1        0.0296
     28 C         139.9699  144.9054  163.1816 C.ar    1  UNL1        0.1401
     29 F         140.8143  145.8749  162.4089 F       1  UNL1       -0.2042
     30 C         140.6050  143.9995  164.1946 C.ar    1  UNL1        0.0296
     31 C         142.3004  139.4061  169.0192 C.1     1  UNL1        0.1004
     32 N         142.9354  138.5000  170.0320 N.1     1  UNL1       -0.1908
@<TRIPOS>BOND
     1    11    12    1
     2    12    13   ar
     3    13    14   ar
     4    14     1    1
     5     1     2   ar
     6     2     3   ar
     7     3     4   ar
     8     4     5   ar
     9     4     6    1
    10     6     7    1
    11     7     8   am
    12     8     9    2
    13     8    18    1
    14    18    19   ar
    15    19    20   ar
    16    20    31    1
    17    31    32    3
    18    20    21   ar
    19    21    22   ar
    20    22    23   ar
    21    23    24    1
    22    24    25   ar
    23    25    26   ar
    24    26    27   ar
    25    27    28   ar
    26    28    29    1
    27    28    30   ar
    28     7    10    1
    29    14    15   ar
    30    15    16   ar
    31    16    17   ar
    32    17    12   ar
    33     5     1   ar
    34    23    18   ar
    35    30    24   ar
    36    10     3    1
