@<TRIPOS>MOLECULE
*****
 35 39 0 0 0
SMALL
GASTEIGER

@<TRIPOS>ATOM
      1 C         142.6062  140.8107  166.6604 C.ar    1  UNL1        0.1169
      2 C         143.5923  140.3512  165.6278 C.ar    1  UNL1        0.0365
      3 C         143.6337  141.0142  164.2829 C.ar    1  UNL1        0.0477
      4 C         142.6889  142.1366  163.9706 C.ar    1  UNL1        0.0318
      5 C         142.7303  142.7995  162.6256 C.ar    1  UNL1        0.0172
      6 C         141.7855  143.9220  162.3133 C.ar    1  UNL1        0.0917
      7 CL        141.8269  144.5849  160.9685 Cl      1  UNL1       -0.0791
      8 C         140.7993  144.3814  163.3460 C.ar    1  UNL1        0.1505
      9 C         140.7579  143.7185  164.6909 C.ar    1  UNL1        0.0569
     10 C         141.7027  142.5961  165.0032 C.ar    1  UNL1        0.0856
     11 N         141.6614  141.9332  166.3481 N.ar    1  UNL1       -0.2421
     12 C         143.3534  137.3517  170.5794 C.3     1  UNL1        0.0725
     13 C         142.9082  138.5579  169.8067 C.ar    1  UNL1        0.1234
     14 C         142.0938  139.6976  170.3433 C.ar    1  UNL1        0.0361
     15 C         141.8815  140.6801  169.2300 C.ar    1  UNL1        0.0418
     16 C         142.5647  140.1478  168.0054 C.ar    1  UNL1        0.1624
     17 O         143.1993  138.8362  168.3618 O.2     1  UNL1       -0.4562
     18 N         144.6199  140.5547  163.2502 N.pl3   1  UNL1       -0.3339
     19 H         145.5796  140.7386  163.3699 H       1  UNL1        0.1468
     20 C         144.1438  139.8150  162.0353 C.3     1  UNL1        0.0718
     21 C         144.1542  140.4887  160.6950 C.3     1  UNL1        0.0368
     22 C         143.6781  139.7490  159.4801 C.3     1  UNL1        0.0738
     23 N         143.1915  138.3356  159.6053 N.3     1  UNL1       -0.2714
     24 C         142.7154  137.5959  158.3903 C.3     1  UNL1        0.0896
     25 C         143.1811  137.6620  160.9455 C.3     1  UNL1        0.0738
     26 C         143.6572  138.4017  162.1604 C.3     1  UNL1        0.0368
     27 O         139.8545  145.5039  163.0337 O.3     1  UNL1       -0.4745
     28 C         138.4896  145.2053  162.4878 C.3     1  UNL1        0.2069
     29 C         137.7296  144.0098  162.9809 C.3     1  UNL1        0.0646
     30 C         137.8216  142.7065  162.2442 C.3     1  UNL1        0.0759
     31 N         138.5339  141.5421  162.8661 N.3     1  UNL1       -0.2726
     32 C         139.6457  140.7525  162.2412 C.3     1  UNL1        0.0721
     33 C         140.0584  139.6852  163.2111 C.3     1  UNL1        0.0188
     34 C         139.2016  139.8152  164.4354 C.3     1  UNL1        0.0188
     35 C         138.2595  140.9627  164.2223 C.3     1  UNL1        0.0721
@<TRIPOS>BOND
     1    12    13    1
     2    13    14   ar
     3    14    15   ar
     4    15    16   ar
     5    16     1    1
     6     1     2   ar
     7     2     3   ar
     8     3    18    1
     9    18    20    1
    10    20    21    1
    11    21    22    1
    12    22    23    1
    13    23    24    1
    14    23    25    1
    15    25    26    1
    16     3     4   ar
    17     4     5   ar
    18     5     6   ar
    19     6     7    1
    20     6     8   ar
    21     8    27    1
    22    27    28    1
    23    28    29    1
    24    29    30    1
    25    30    31    1
    26    31    32    1
    27    32    33    1
    28    33    34    1
    29    34    35    1
    30     8     9   ar
    31     9    10   ar
    32    10    11   ar
    33    16    17   ar
    34    17    13   ar
    35    11     1   ar
    36    26    20    1
    37    10     4   ar
    38    35    31    1
    39    18    19    1
@<TRIPOS>MOLECULE
*****
 35 39 0 0 0
SMALL
GASTEIGER

@<TRIPOS>ATOM
      1 C         138.5787  140.0991  158.9360 C.ar    1  UNL1        0.1169
      2 C         139.9160  139.5209  158.5792 C.ar    1  UNL1        0.0365
      3 C         140.6987  138.7539  159.6033 C.ar    1  UNL1        0.0477
      4 C         140.1442  138.5650  160.9842 C.ar    1  UNL1        0.0318
      5 C         140.9271  137.7979  162.0083 C.ar    1  UNL1        0.0172
      6 C         140.3726  137.6090  163.3892 C.ar    1  UNL1        0.0917
      7 CL        141.1554  136.8419  164.4133 Cl      1  UNL1       -0.0791
      8 C         139.0352  138.1872  163.7459 C.ar    1  UNL1        0.1505
      9 C         138.2525  138.9543  162.7218 C.ar    1  UNL1        0.0569
     10 C         138.8070  139.1432  161.3410 C.ar    1  UNL1        0.0856
     11 N         138.0242  139.9103  160.3169 N.ar    1  UNL1       -0.2421
     12 C         135.0319  141.3527  155.2305 C.3     1  UNL1        0.0725
     13 C         136.1656  141.4425  156.2087 C.ar    1  UNL1        0.1234
     14 C         137.0169  142.6511  156.4632 C.ar    1  UNL1        0.0361
     15 C         138.0244  142.2949  157.5159 C.ar    1  UNL1        0.0418
     16 C         137.7958  140.8663  157.9119 C.ar    1  UNL1        0.1624
     17 O         136.6471  140.3395  157.1040 O.2     1  UNL1       -0.4562
     18 N         142.0361  138.1756  159.2465 N.pl3   1  UNL1       -0.3339
     19 H         142.3404  137.3408  159.6705 H       1  UNL1        0.1468
     20 C         142.9097  138.8693  158.2437 C.3     1  UNL1        0.0718
     21 C         143.6549  140.1123  158.6309 C.3     1  UNL1        0.0368
     22 C         144.5285  140.8060  157.6281 C.3     1  UNL1        0.0738
     23 N         144.6570  140.2567  156.2382 N.3     1  UNL1       -0.2714
     24 C         145.5307  140.9504  155.2354 C.3     1  UNL1        0.0896
     25 C         143.9119  139.0138  155.8511 C.3     1  UNL1        0.0738
     26 C         143.0382  138.3201  156.8539 C.3     1  UNL1        0.0368
     27 O         138.4807  137.9984  165.1268 O.3     1  UNL1       -0.4745
     28 C         138.1711  139.1923  165.9805 C.3     1  UNL1        0.2069
     29 C         139.2861  140.0415  166.5151 C.3     1  UNL1        0.0646
     30 C         139.9635  141.0387  165.6226 C.3     1  UNL1        0.0759
     31 N         139.2982  142.3488  165.3210 N.3     1  UNL1       -0.2726
     32 C         138.0470  142.5374  164.5155 C.3     1  UNL1        0.0721
     33 C         137.7428  144.0055  164.4685 C.3     1  UNL1        0.0188
     34 C         138.8060  144.7242  165.2450 C.3     1  UNL1        0.0188
     35 C         139.7673  143.7003  165.7718 C.3     1  UNL1        0.0721
@<TRIPOS>BOND
     1    12    13    1
     2    13    14   ar
     3    14    15   ar
     4    15    16   ar
     5    16     1    1
     6     1     2   ar
     7     2     3   ar
     8     3    18    1
     9    18    20    1
    10    20    21    1
    11    21    22    1
    12    22    23    1
    13    23    24    1
    14    23    25    1
    15    25    26    1
    16     3     4   ar
    17     4     5   ar
    18     5     6   ar
    19     6     7    1
    20     6     8   ar
    21     8    27    1
    22    27    28    1
    23    28    29    1
    24    29    30    1
    25    30    31    1
    26    31    32    1
    27    32    33    1
    28    33    34    1
    29    34    35    1
    30     8     9   ar
    31     9    10   ar
    32    10    11   ar
    33    16    17   ar
    34    17    13   ar
    35    11     1   ar
    36    26    20    1
    37    10     4   ar
    38    35    31    1
    39    18    19    1
@<TRIPOS>MOLECULE
*****
 35 39 0 0 0
SMALL
GASTEIGER

@<TRIPOS>ATOM
      1 C         139.7829  139.2775  159.8326 C.ar    1  UNL1        0.1169
      2 C         139.3905  138.5476  161.0829 C.ar    1  UNL1        0.0365
      3 C         138.9076  139.3140  162.2784 C.ar    1  UNL1        0.0477
      4 C         138.8170  140.8102  162.2236 C.ar    1  UNL1        0.0318
      5 C         138.3340  141.5766  163.4193 C.ar    1  UNL1        0.0172
      6 C         138.2434  143.0729  163.3645 C.ar    1  UNL1        0.0917
      7 CL        137.7604  143.8393  164.5600 Cl      1  UNL1       -0.0791
      8 C         138.6358  143.8028  162.1141 C.ar    1  UNL1        0.1505
      9 C         139.1188  143.0364  160.9186 C.ar    1  UNL1        0.0569
     10 C         139.2094  141.5401  160.9734 C.ar    1  UNL1        0.0856
     11 N         139.6924  140.7737  159.7778 N.ar    1  UNL1       -0.2421
     12 C         139.8664  136.5949  155.2852 C.3     1  UNL1        0.0725
     13 C         140.3043  137.2781  156.5468 C.ar    1  UNL1        0.1234
     14 C         141.7142  137.3855  157.0476 C.ar    1  UNL1        0.0361
     15 C         141.6905  138.1475  158.3393 C.ar    1  UNL1        0.0418
     16 C         140.2659  138.5111  158.6370 C.ar    1  UNL1        0.1624
     17 O         139.4093  137.9737  157.5291 O.2     1  UNL1       -0.4562
     18 N         138.5151  138.5841  163.5288 N.pl3   1  UNL1       -0.3339
     19 H         137.8413  137.8674  163.4895 H       1  UNL1        0.1468
     20 C         139.1494  138.9462  164.8389 C.3     1  UNL1        0.0718
     21 C         140.6400  139.0820  164.9384 C.3     1  UNL1        0.0368
     22 C         141.2743  139.4441  166.2486 C.3     1  UNL1        0.0738
     23 N         140.4180  139.6704  167.4593 N.3     1  UNL1       -0.2714
     24 C         141.0523  140.0325  168.7694 C.3     1  UNL1        0.0896
     25 C         138.9276  139.5346  167.3598 C.3     1  UNL1        0.0738
     26 C         138.2932  139.1725  166.0496 C.3     1  UNL1        0.0368
     27 O         138.5453  145.2990  162.0594 O.3     1  UNL1       -0.4745
     28 C         139.7962  146.1269  162.0658 C.3     1  UNL1        0.2069
     29 C         141.1247  145.4765  162.3151 C.3     1  UNL1        0.0646
     30 C         141.6302  145.3171  163.7183 C.3     1  UNL1        0.0759
     31 N         142.5335  144.1708  164.0644 N.3     1  UNL1       -0.2726
     32 C         142.1579  142.7186  164.0562 C.3     1  UNL1        0.0721
     33 C         143.3633  141.9256  164.4662 C.3     1  UNL1        0.0188
     34 C         144.4840  142.8877  164.7280 C.3     1  UNL1        0.0188
     35 C         143.9711  144.2753  164.4796 C.3     1  UNL1        0.0721
@<TRIPOS>BOND
     1    12    13    1
     2    13    14   ar
     3    14    15   ar
     4    15    16   ar
     5    16     1    1
     6     1     2   ar
     7     2     3   ar
     8     3    18    1
     9    18    20    1
    10    20    21    1
    11    21    22    1
    12    22    23    1
    13    23    24    1
    14    23    25    1
    15    25    26    1
    16     3     4   ar
    17     4     5   ar
    18     5     6   ar
    19     6     7    1
    20     6     8   ar
    21     8    27    1
    22    27    28    1
    23    28    29    1
    24    29    30    1
    25    30    31    1
    26    31    32    1
    27    32    33    1
    28    33    34    1
    29    34    35    1
    30     8     9   ar
    31     9    10   ar
    32    10    11   ar
    33    16    17   ar
    34    17    13   ar
    35    11     1   ar
    36    26    20    1
    37    10     4   ar
    38    35    31    1
    39    18    19    1
@<TRIPOS>MOLECULE
*****
 35 39 0 0 0
SMALL
GASTEIGER

@<TRIPOS>ATOM
      1 C         142.6185  138.0082  159.8000 C.ar    1  UNL1        0.1169
      2 C         143.7391  138.8581  160.3215 C.ar    1  UNL1        0.0365
      3 C         143.7847  139.2303  161.7738 C.ar    1  UNL1        0.0477
      4 C         142.7098  138.7527  162.7046 C.ar    1  UNL1        0.0318
      5 C         142.7555  139.1250  164.1570 C.ar    1  UNL1        0.0172
      6 C         141.6805  138.6474  165.0878 C.ar    1  UNL1        0.0917
      7 CL        141.7262  139.0196  166.5402 Cl      1  UNL1       -0.0791
      8 C         140.5599  137.7975  164.5662 C.ar    1  UNL1        0.1505
      9 C         140.5143  137.4253  163.1139 C.ar    1  UNL1        0.0569
     10 C         141.5892  137.9029  162.1831 C.ar    1  UNL1        0.0856
     11 N         141.5436  137.5306  160.7308 N.ar    1  UNL1       -0.2421
     12 C         143.5197  135.5479  155.2156 C.3     1  UNL1        0.0725
     13 C         142.9871  136.5051  156.2404 C.ar    1  UNL1        0.1234
     14 C         142.0180  137.6212  155.9848 C.ar    1  UNL1        0.0361
     15 C         141.7620  138.3201  157.2871 C.ar    1  UNL1        0.0418
     16 C         142.5729  137.6360  158.3475 C.ar    1  UNL1        0.1624
     17 O         143.3300  136.5142  157.7006 O.2     1  UNL1       -0.4562
     18 N         144.9054  140.0802  162.2954 N.pl3   1  UNL1       -0.3339
     19 H         145.8225  139.7232  162.3223 H       1  UNL1        0.1468
     20 C         144.6286  141.4738  162.7761 C.3     1  UNL1        0.0718
     21 C         144.9789  141.8661  164.1810 C.3     1  UNL1        0.0368
     22 C         144.7021  143.2597  164.6617 C.3     1  UNL1        0.0738
     23 N         144.0750  144.2612  163.7376 N.3     1  UNL1       -0.2714
     24 C         143.7982  145.6548  164.2183 C.3     1  UNL1        0.0896
     25 C         143.7247  143.8689  162.3328 C.3     1  UNL1        0.0738
     26 C         144.0015  142.4752  161.8521 C.3     1  UNL1        0.0368
     27 O         139.4850  137.3199  165.4970 O.3     1  UNL1       -0.4745
     28 C         138.2681  138.1645  165.7337 C.3     1  UNL1        0.2069
     29 C         138.3507  139.6554  165.5912 C.3     1  UNL1        0.0646
     30 C         138.1081  140.2958  164.2567 C.3     1  UNL1        0.0759
     31 N         138.1453  141.7895  164.1237 N.3     1  UNL1       -0.2726
     32 C         137.5176  142.5926  163.0233 C.3     1  UNL1        0.0721
     33 C         137.8010  144.0417  163.2873 C.3     1  UNL1        0.0188
     34 C         138.6040  144.1342  164.5509 C.3     1  UNL1        0.0188
     35 C         138.8167  142.7423  165.0678 C.3     1  UNL1        0.0721
@<TRIPOS>BOND
     1    12    13    1
     2    13    14   ar
     3    14    15   ar
     4    15    16   ar
     5    16     1    1
     6     1     2   ar
     7     2     3   ar
     8     3    18    1
     9    18    20    1
    10    20    21    1
    11    21    22    1
    12    22    23    1
    13    23    24    1
    14    23    25    1
    15    25    26    1
    16     3     4   ar
    17     4     5   ar
    18     5     6   ar
    19     6     7    1
    20     6     8   ar
    21     8    27    1
    22    27    28    1
    23    28    29    1
    24    29    30    1
    25    30    31    1
    26    31    32    1
    27    32    33    1
    28    33    34    1
    29    34    35    1
    30     8     9   ar
    31     9    10   ar
    32    10    11   ar
    33    16    17   ar
    34    17    13   ar
    35    11     1   ar
    36    26    20    1
    37    10     4   ar
    38    35    31    1
    39    18    19    1
@<TRIPOS>MOLECULE
*****
 35 39 0 0 0
SMALL
GASTEIGER

@<TRIPOS>ATOM
      1 C         138.0479  140.7104  158.3050 C.ar    1  UNL1        0.1169
      2 C         139.4591  141.2070  158.1955 C.ar    1  UNL1        0.0365
      3 C         140.4561  140.8752  159.2659 C.ar    1  UNL1        0.0477
      4 C         140.0420  140.0468  160.4458 C.ar    1  UNL1        0.0318
      5 C         141.0391  139.7150  161.5163 C.ar    1  UNL1        0.0172
      6 C         140.6249  138.8866  162.6962 C.ar    1  UNL1        0.0917
      7 CL        141.6219  138.5548  163.7666 Cl      1  UNL1       -0.0791
      8 C         139.2137  138.3900  162.8057 C.ar    1  UNL1        0.1505
      9 C         138.2167  138.7218  161.7353 C.ar    1  UNL1        0.0569
     10 C         138.6308  139.5502  160.5554 C.ar    1  UNL1        0.0856
     11 N         137.6338  139.8820  159.4849 N.ar    1  UNL1       -0.2421
     12 C         133.7678  140.5840  155.2154 C.3     1  UNL1        0.0725
     13 C         135.0835  140.9841  155.8145 C.ar    1  UNL1        0.1234
     14 C         135.9496  142.1215  155.3602 C.ar    1  UNL1        0.0361
     15 C         137.1655  142.1574  156.2379 C.ar    1  UNL1        0.0418
     16 C         137.0508  141.0422  157.2346 C.ar    1  UNL1        0.1624
     17 O         135.7641  140.3171  156.9728 O.2     1  UNL1       -0.4562
     18 N         141.8673  141.3718  159.1564 N.pl3   1  UNL1       -0.3339
     19 H         142.4399  141.0683  158.4153 H       1  UNL1        0.1468
     20 C         142.4061  142.3309  160.1761 C.3     1  UNL1        0.0718
     21 C         141.5453  143.4512  160.6805 C.3     1  UNL1        0.0368
     22 C         142.0841  144.4103  161.7002 C.3     1  UNL1        0.0738
     23 N         143.4836  144.2492  162.2155 N.3     1  UNL1       -0.2714
     24 C         144.0224  145.2083  163.2353 C.3     1  UNL1        0.0896
     25 C         144.3443  143.1290  161.7112 C.3     1  UNL1        0.0738
     26 C         143.8055  142.1699  160.6915 C.3     1  UNL1        0.0368
     27 O         138.7996  137.5616  163.9856 O.3     1  UNL1       -0.4745
     28 C         138.5935  138.2104  165.3223 C.3     1  UNL1        0.2069
     29 C         138.2061  139.6573  165.4019 C.3     1  UNL1        0.0646
     30 C         139.2632  140.7090  165.5639 C.3     1  UNL1        0.0759
     31 N         138.9491  142.1424  165.2528 N.3     1  UNL1       -0.2726
     32 C         137.8349  142.6304  164.3750 C.3     1  UNL1        0.0721
     33 C         137.8912  144.1290  164.3445 C.3     1  UNL1        0.0188
     34 C         139.0402  144.5673  165.2035 C.3     1  UNL1        0.0188
     35 C         139.6940  143.3395  165.7648 C.3     1  UNL1        0.0721
@<TRIPOS>BOND
     1    12    13    1
     2    13    14   ar
     3    14    15   ar
     4    15    16   ar
     5    16     1    1
     6     1     2   ar
     7     2     3   ar
     8     3    18    1
     9    18    20    1
    10    20    21    1
    11    21    22    1
    12    22    23    1
    13    23    24    1
    14    23    25    1
    15    25    26    1
    16     3     4   ar
    17     4     5   ar
    18     5     6   ar
    19     6     7    1
    20     6     8   ar
    21     8    27    1
    22    27    28    1
    23    28    29    1
    24    29    30    1
    25    30    31    1
    26    31    32    1
    27    32    33    1
    28    33    34    1
    29    34    35    1
    30     8     9   ar
    31     9    10   ar
    32    10    11   ar
    33    16    17   ar
    34    17    13   ar
    35    11     1   ar
    36    26    20    1
    37    10     4   ar
    38    35    31    1
    39    18    19    1
@<TRIPOS>MOLECULE
*****
 35 39 0 0 0
SMALL
GASTEIGER

@<TRIPOS>ATOM
      1 C         140.1937  144.8847  158.2390 C.ar    1  UNL1        0.1169
      2 C         141.1616  145.3585  159.2824 C.ar    1  UNL1        0.0365
      3 C         141.1767  144.7166  160.6380 C.ar    1  UNL1        0.0477
      4 C         140.2239  143.6009  160.9502 C.ar    1  UNL1        0.0318
      5 C         140.2390  142.9590  162.3058 C.ar    1  UNL1        0.0172
      6 C         139.2862  141.8433  162.6180 C.ar    1  UNL1        0.0917
      7 CL        139.3013  141.2014  163.9736 Cl      1  UNL1       -0.0791
      8 C         138.3183  141.3695  161.5746 C.ar    1  UNL1        0.1505
      9 C         138.3032  142.0115  160.2190 C.ar    1  UNL1        0.0569
     10 C         139.2560  143.1271  159.9068 C.ar    1  UNL1        0.0856
     11 N         139.2409  143.7690  158.5512 N.ar    1  UNL1       -0.2421
     12 C         139.5891  148.4184  154.3623 C.3     1  UNL1        0.0725
     13 C         139.9007  147.1508  155.1014 C.ar    1  UNL1        0.1234
     14 C         140.4100  145.8778  154.4929 C.ar    1  UNL1        0.0361
     15 C         140.5817  144.8740  155.5943 C.ar    1  UNL1        0.0418
     16 C         140.1786  145.5266  156.8833 C.ar    1  UNL1        0.1624
     17 O         139.7577  146.9337  156.5787 O.2     1  UNL1       -0.4562
     18 N         142.1446  145.1903  161.6815 N.pl3   1  UNL1       -0.3339
     19 H         142.1331  146.1306  161.9729 H       1  UNL1        0.1468
     20 C         143.1300  144.2313  162.2809 C.3     1  UNL1        0.0718
     21 C         143.8424  143.2431  161.4057 C.3     1  UNL1        0.0368
     22 C         144.8278  142.2841  162.0051 C.3     1  UNL1        0.0738
     23 N         145.1008  142.3134  163.4798 N.3     1  UNL1       -0.2714
     24 C         146.0862  141.3544  164.0793 C.3     1  UNL1        0.0896
     25 C         144.3884  143.3016  164.3550 C.3     1  UNL1        0.0738
     26 C         143.4030  144.2605  163.7555 C.3     1  UNL1        0.0368
     27 O         137.3655  140.2539  161.8868 O.3     1  UNL1       -0.4745
     28 C         137.7427  138.8360  161.5745 C.3     1  UNL1        0.2069
     29 C         138.5600  138.0447  162.5522 C.3     1  UNL1        0.0646
     30 C         139.9880  137.7100  162.2383 C.3     1  UNL1        0.0759
     31 N         141.0822  138.1456  163.1673 N.3     1  UNL1       -0.2726
     32 C         142.0894  139.2242  162.8988 C.3     1  UNL1        0.0721
     33 C         142.9910  139.3244  164.0934 C.3     1  UNL1        0.0188
     34 C         142.5409  138.3077  165.1003 C.3     1  UNL1        0.0188
     35 C         141.3612  137.5792  164.5279 C.3     1  UNL1        0.0721
@<TRIPOS>BOND
     1    12    13    1
     2    13    14   ar
     3    14    15   ar
     4    15    16   ar
     5    16     1    1
     6     1     2   ar
     7     2     3   ar
     8     3    18    1
     9    18    20    1
    10    20    21    1
    11    21    22    1
    12    22    23    1
    13    23    24    1
    14    23    25    1
    15    25    26    1
    16     3     4   ar
    17     4     5   ar
    18     5     6   ar
    19     6     7    1
    20     6     8   ar
    21     8    27    1
    22    27    28    1
    23    28    29    1
    24    29    30    1
    25    30    31    1
    26    31    32    1
    27    32    33    1
    28    33    34    1
    29    34    35    1
    30     8     9   ar
    31     9    10   ar
    32    10    11   ar
    33    16    17   ar
    34    17    13   ar
    35    11     1   ar
    36    26    20    1
    37    10     4   ar
    38    35    31    1
    39    18    19    1
@<TRIPOS>MOLECULE
*****
 35 39 0 0 0
SMALL
GASTEIGER

@<TRIPOS>ATOM
      1 C         142.6078  137.9753  158.7588 C.ar    1  UNL1        0.1169
      2 C         142.7199  137.5487  160.1925 C.ar    1  UNL1        0.0365
      3 C         142.7896  138.5808  161.2787 C.ar    1  UNL1        0.0477
      4 C         142.7473  140.0394  160.9313 C.ar    1  UNL1        0.0318
      5 C         142.8170  141.0714  162.0176 C.ar    1  UNL1        0.0172
      6 C         142.7747  142.5300  161.6702 C.ar    1  UNL1        0.0917
      7 CL        142.8444  143.5621  162.7565 Cl      1  UNL1       -0.0791
      8 C         142.6626  142.9566  160.2365 C.ar    1  UNL1        0.1505
      9 C         142.5928  141.9245  159.1502 C.ar    1  UNL1        0.0569
     10 C         142.6352  140.4659  159.4976 C.ar    1  UNL1        0.0856
     11 N         142.5655  139.4339  158.4114 N.ar    1  UNL1       -0.2421
     12 C         143.3635  133.5483  155.9817 C.3     1  UNL1        0.0725
     13 C         142.8854  134.9084  156.3960 C.ar    1  UNL1        0.1234
     14 C         141.9760  135.8019  155.6056 C.ar    1  UNL1        0.0361
     15 C         141.7613  137.0595  156.3945 C.ar    1  UNL1        0.0418
     16 C         142.5381  136.9432  157.6725 C.ar    1  UNL1        0.1624
     17 O         143.2328  135.6138  157.6734 O.2     1  UNL1       -0.4562
     18 N         142.9017  138.1543  162.7125 N.pl3   1  UNL1       -0.3339
     19 H         143.7550  137.8040  163.0566 H       1  UNL1        0.1468
     20 C         141.7137  138.2615  163.6219 C.3     1  UNL1        0.0718
     21 C         141.8212  139.0232  164.9097 C.3     1  UNL1        0.0368
     22 C         140.6332  139.1304  165.8191 C.3     1  UNL1        0.0738
     23 N         139.3376  138.4759  165.4408 N.3     1  UNL1       -0.2714
     24 C         138.1495  138.5831  166.3502 C.3     1  UNL1        0.0896
     25 C         139.2301  137.7142  164.1531 C.3     1  UNL1        0.0738
     26 C         140.4181  137.6070  163.2436 C.3     1  UNL1        0.0368
     27 O         142.6202  144.4152  159.8891 O.3     1  UNL1       -0.4745
     28 C         141.3032  145.0893  159.6417 C.3     1  UNL1        0.2069
     29 C         140.1254  144.7781  160.5169 C.3     1  UNL1        0.0646
     30 C         139.8235  145.6439  161.7040 C.3     1  UNL1        0.0759
     31 N         139.2590  145.0342  162.9528 N.3     1  UNL1       -0.2726
     32 C         139.9574  144.9289  164.2761 C.3     1  UNL1        0.0721
     33 C         139.0271  144.2523  165.2388 C.3     1  UNL1        0.0188
     34 C         137.7536  143.9396  164.5104 C.3     1  UNL1        0.0188
     35 C         137.8970  144.4228  163.0977 C.3     1  UNL1        0.0721
@<TRIPOS>BOND
     1    12    13    1
     2    13    14   ar
     3    14    15   ar
     4    15    16   ar
     5    16     1    1
     6     1     2   ar
     7     2     3   ar
     8     3    18    1
     9    18    20    1
    10    20    21    1
    11    21    22    1
    12    22    23    1
    13    23    24    1
    14    23    25    1
    15    25    26    1
    16     3     4   ar
    17     4     5   ar
    18     5     6   ar
    19     6     7    1
    20     6     8   ar
    21     8    27    1
    22    27    28    1
    23    28    29    1
    24    29    30    1
    25    30    31    1
    26    31    32    1
    27    32    33    1
    28    33    34    1
    29    34    35    1
    30     8     9   ar
    31     9    10   ar
    32    10    11   ar
    33    16    17   ar
    34    17    13   ar
    35    11     1   ar
    36    26    20    1
    37    10     4   ar
    38    35    31    1
    39    18    19    1
@<TRIPOS>MOLECULE
*****
 35 39 0 0 0
SMALL
GASTEIGER

@<TRIPOS>ATOM
      1 C         137.9794  140.2554  157.8765 C.ar    1  UNL1        0.1169
      2 C         139.3469  139.8363  157.4248 C.ar    1  UNL1        0.0365
      3 C         140.2778  139.1558  158.3841 C.ar    1  UNL1        0.0477
      4 C         139.8411  138.8943  159.7951 C.ar    1  UNL1        0.0318
      5 C         140.7720  138.2137  160.7544 C.ar    1  UNL1        0.0172
      6 C         140.3353  137.9523  162.1654 C.ar    1  UNL1        0.0917
      7 CL        141.2662  137.2718  163.1247 Cl      1  UNL1       -0.0791
      8 C         138.9677  138.3715  162.6171 C.ar    1  UNL1        0.1505
      9 C         138.0368  139.0520  161.6578 C.ar    1  UNL1        0.0569
     10 C         138.4735  139.3135  160.2468 C.ar    1  UNL1        0.0856
     11 N         137.5427  139.9940  159.2875 N.ar    1  UNL1       -0.2421
     12 C         133.9044  141.2134  154.6580 C.3     1  UNL1        0.0725
     13 C         135.1754  141.3764  155.4378 C.ar    1  UNL1        0.1234
     14 C         136.0565  142.5904  155.4441 C.ar    1  UNL1        0.0361
     15 C         137.2141  142.3182  156.3584 C.ar    1  UNL1        0.0418
     16 C         137.0484  140.9360  156.9172 C.ar    1  UNL1        0.1624
     17 O         135.7885  140.3540  156.3482 O.2     1  UNL1       -0.4562
     18 N         141.6454  138.7366  157.9324 N.pl3   1  UNL1       -0.3339
     19 H         142.4180  139.3263  158.0895 H       1  UNL1        0.1468
     20 C         141.8359  137.4189  157.2414 C.3     1  UNL1        0.0718
     21 C         140.9082  137.0110  156.1354 C.3     1  UNL1        0.0368
     22 C         141.0988  135.6934  155.4444 C.3     1  UNL1        0.0738
     23 N         142.2170  134.7836  155.8594 N.3     1  UNL1       -0.2714
     24 C         142.4075  133.4660  155.1683 C.3     1  UNL1        0.0896
     25 C         143.1446  135.1916  156.9653 C.3     1  UNL1        0.0738
     26 C         142.9541  136.5092  157.6563 C.3     1  UNL1        0.0368
     27 O         138.5310  138.1100  164.0281 O.3     1  UNL1       -0.4745
     28 C         138.8524  139.1000  165.1083 C.3     1  UNL1        0.2069
     29 C         138.2281  140.4637  165.0858 C.3     1  UNL1        0.0646
     30 C         139.0559  141.6617  164.7260 C.3     1  UNL1        0.0759
     31 N         139.2343  142.0453  163.2869 N.3     1  UNL1       -0.2726
     32 C         140.4841  141.8703  162.4761 C.3     1  UNL1        0.0721
     33 C         140.2164  142.3881  161.0940 C.3     1  UNL1        0.0188
     34 C         138.8011  142.8831  161.0506 C.3     1  UNL1        0.0188
     35 C         138.1941  142.6712  162.4058 C.3     1  UNL1        0.0721
@<TRIPOS>BOND
     1    12    13    1
     2    13    14   ar
     3    14    15   ar
     4    15    16   ar
     5    16     1    1
     6     1     2   ar
     7     2     3   ar
     8     3    18    1
     9    18    20    1
    10    20    21    1
    11    21    22    1
    12    22    23    1
    13    23    24    1
    14    23    25    1
    15    25    26    1
    16     3     4   ar
    17     4     5   ar
    18     5     6   ar
    19     6     7    1
    20     6     8   ar
    21     8    27    1
    22    27    28    1
    23    28    29    1
    24    29    30    1
    25    30    31    1
    26    31    32    1
    27    32    33    1
    28    33    34    1
    29    34    35    1
    30     8     9   ar
    31     9    10   ar
    32    10    11   ar
    33    16    17   ar
    34    17    13   ar
    35    11     1   ar
    36    26    20    1
    37    10     4   ar
    38    35    31    1
    39    18    19    1
@<TRIPOS>MOLECULE
*****
 35 39 0 0 0
SMALL
GASTEIGER

@<TRIPOS>ATOM
      1 C         140.8277  140.7123  167.4224 C.ar    1  UNL1        0.1169
      2 C         141.7940  139.7728  166.7640 C.ar    1  UNL1        0.0365
      3 C         142.5003  140.1836  165.5061 C.ar    1  UNL1        0.0477
      4 C         142.2404  141.5338  164.9066 C.ar    1  UNL1        0.0318
      5 C         142.9468  141.9445  163.6487 C.ar    1  UNL1        0.0172
      6 C         142.6869  143.2947  163.0492 C.ar    1  UNL1        0.0917
      7 CL        143.3932  143.7054  161.7913 Cl      1  UNL1       -0.0791
      8 C         141.7205  144.2342  163.7077 C.ar    1  UNL1        0.1505
      9 C         141.0142  143.8235  164.9656 C.ar    1  UNL1        0.0569
     10 C         141.2741  142.4733  165.5651 C.ar    1  UNL1        0.0856
     11 N         140.5678  142.0625  166.8230 N.ar    1  UNL1       -0.2421
     12 C         137.0699  139.1773  170.7994 C.3     1  UNL1        0.0725
     13 C         138.3940  139.5960  170.2326 C.ar    1  UNL1        0.1234
     14 C         139.6747  139.7432  170.9997 C.ar    1  UNL1        0.0361
     15 C         140.7421  140.1792  170.0404 C.ar    1  UNL1        0.0418
     16 C         140.1213  140.3016  168.6804 C.ar    1  UNL1        0.1624
     17 O         138.6701  139.9412  168.7992 O.2     1  UNL1       -0.4562
     18 N         143.4667  139.2441  164.8476 N.pl3   1  UNL1       -0.3339
     19 H         144.2355  138.8943  165.3534 H       1  UNL1        0.1468
     20 C         143.2616  138.8374  163.4184 C.3     1  UNL1        0.0718
     21 C         144.3397  139.0869  162.4056 C.3     1  UNL1        0.0368
     22 C         144.1346  138.6803  160.9764 C.3     1  UNL1        0.0738
     23 N         142.8515  138.0242  160.5599 N.3     1  UNL1       -0.2714
     24 C         142.6465  137.6176  159.1307 C.3     1  UNL1        0.0896
     25 C         141.7736  137.7748  161.5727 C.3     1  UNL1        0.0738
     26 C         141.9786  138.1814  163.0019 C.3     1  UNL1        0.0368
     27 O         141.4605  145.5844  163.1083 O.3     1  UNL1       -0.4745
     28 C         140.3006  145.7812  162.1777 C.3     1  UNL1        0.2069
     29 C         139.0266  145.0201  162.3959 C.3     1  UNL1        0.0646
     30 C         138.8500  143.6621  161.7838 C.3     1  UNL1        0.0759
     31 N         138.7151  142.4547  162.6636 N.3     1  UNL1       -0.2726
     32 C         137.8321  142.3373  163.8704 C.3     1  UNL1        0.0721
     33 C         138.0107  140.9628  164.4437 C.3     1  UNL1        0.0188
     34 C         139.0042  140.2305  163.5911 C.3     1  UNL1        0.0188
     35 C         139.4394  141.1526  162.4909 C.3     1  UNL1        0.0721
@<TRIPOS>BOND
     1    12    13    1
     2    13    14   ar
     3    14    15   ar
     4    15    16   ar
     5    16     1    1
     6     1     2   ar
     7     2     3   ar
     8     3    18    1
     9    18    20    1
    10    20    21    1
    11    21    22    1
    12    22    23    1
    13    23    24    1
    14    23    25    1
    15    25    26    1
    16     3     4   ar
    17     4     5   ar
    18     5     6   ar
    19     6     7    1
    20     6     8   ar
    21     8    27    1
    22    27    28    1
    23    28    29    1
    24    29    30    1
    25    30    31    1
    26    31    32    1
    27    32    33    1
    28    33    34    1
    29    34    35    1
    30     8     9   ar
    31     9    10   ar
    32    10    11   ar
    33    16    17   ar
    34    17    13   ar
    35    11     1   ar
    36    26    20    1
    37    10     4   ar
    38    35    31    1
    39    18    19    1
