@<TRIPOS>MOLECULE
*****
 24 27 0 0 0
SMALL
GASTEIGER

@<TRIPOS>ATOM
      1 C         141.1940  140.2950  166.8822 C.ar    1  UNL1        0.0676
      2 C         142.3156  139.3151  166.7040 C.ar    1  UNL1        0.0173
      3 C         143.4069  139.5961  165.7141 C.ar    1  UNL1       -0.0028
      4 C         143.3767  140.8570  164.9022 C.ar    1  UNL1       -0.0224
      5 C         142.2550  141.8370  165.0803 C.ar    1  UNL1       -0.0026
      6 C         142.2248  143.0979  164.2685 C.ar    1  UNL1       -0.0003
      7 C         141.1032  144.0778  164.4466 C.ar    1  UNL1       -0.0000
      8 C         140.0118  143.7968  165.4366 C.ar    1  UNL1        0.0000
      9 C         140.0421  142.5359  166.2484 C.ar    1  UNL1        0.0014
     10 C         141.1637  141.5560  166.0703 C.ar    1  UNL1        0.0159
     11 C         140.1724  140.2498  169.3518 C.ar    1  UNL1        0.1978
     12 N         138.8628  139.8294  169.9504 N.ar    1  UNL1       -0.1213
     13 N         137.9838  139.3337  168.8407 N.ar    1  UNL1       -0.1208
     14 C         138.7501  139.4478  167.5562 C.ar    1  UNL1        0.2054
     15 BR        138.2513  139.0631  166.1949 Br      1  UNL1       -0.0059
     16 N         140.1027  140.0140  167.8721 N.ar    1  UNL1       -0.2638
     17 S         141.3456  140.8081  170.1014 S.3     1  UNL1       -0.0693
     18 C         141.4839  142.2908  170.2817 C.3     1  UNL1        0.1066
     19 O         140.0163  144.1776  169.2642 O.co2   1  UNL1       -0.5483
     20 C         140.2607  143.1571  170.3360 C.2     1  UNL1        0.0617
     21 O         139.2818  143.0030  171.4621 O.co2   1  UNL1       -0.5483
     22 C         144.4680  141.1380  163.9122 C.3     1  UNL1        0.0224
     23 C         144.9770  141.1246  162.5014 C.3     1  UNL1        0.0047
     24 C         145.8491  141.6382  163.6085 C.3     1  UNL1        0.0047
@<TRIPOS>UNITY_ATOM_ATTR
19 1
charge -1
@<TRIPOS>BOND
     1    19    20   ar
     2    20    21   ar
     3    20    18    1
     4    18    17    1
     5    17    11    1
     6    11    12   ar
     7    12    13   ar
     8    13    14   ar
     9    14    15    1
    10    14    16   ar
    11    16     1    1
    12     1     2   ar
    13     2     3   ar
    14     3     4   ar
    15     4    22    1
    16    22    23    1
    17    23    24    1
    18     4     5   ar
    19     5     6   ar
    20     6     7   ar
    21     7     8   ar
    22     8     9   ar
    23     9    10   ar
    24    16    11   ar
    25    10     1   ar
    26    24    22    1
    27    10     5   ar
@<TRIPOS>MOLECULE
*****
 24 27 0 0 0
SMALL
GASTEIGER

@<TRIPOS>ATOM
      1 C         140.8288  141.2369  166.2529 C.ar    1  UNL1        0.0676
      2 C         140.4560  142.6121  165.7842 C.ar    1  UNL1        0.0173
      3 C         141.3481  143.3459  164.8273 C.ar    1  UNL1       -0.0028
      4 C         142.6131  142.7045  164.3391 C.ar    1  UNL1       -0.0224
      5 C         142.9860  141.3292  164.8078 C.ar    1  UNL1       -0.0026
      6 C         144.2510  140.6878  164.3196 C.ar    1  UNL1       -0.0003
      7 C         144.6238  139.3126  164.7883 C.ar    1  UNL1       -0.0000
      8 C         143.7317  138.5788  165.7452 C.ar    1  UNL1        0.0000
      9 C         142.4667  139.2202  166.2334 C.ar    1  UNL1        0.0014
     10 C         142.0939  140.5954  165.7647 C.ar    1  UNL1        0.0159
     11 C         140.0106  140.5630  168.7067 C.ar    1  UNL1        0.1978
     12 N         138.9336  139.6775  169.2599 N.ar    1  UNL1       -0.1213
     13 N         138.1940  139.0703  168.1047 N.ar    1  UNL1       -0.1208
     14 C         138.8140  139.5805  166.8377 C.ar    1  UNL1        0.2054
     15 BR        138.3863  139.2298  165.4434 Br      1  UNL1       -0.0059
     16 N         139.9367  140.5031  167.2098 N.ar    1  UNL1       -0.2638
     17 S         140.9896  141.3672  169.5097 S.3     1  UNL1       -0.0693
     18 C         140.9556  142.8657  169.4517 C.3     1  UNL1        0.1066
     19 O         140.0342  145.1303  170.3306 O.co2   1  UNL1       -0.5483
     20 C         140.1068  143.6347  170.4202 C.2     1  UNL1        0.0617
     21 O         139.3307  142.9082  171.4785 O.co2   1  UNL1       -0.5483
     22 C         143.5052  143.4383  163.3822 C.3     1  UNL1        0.0224
     23 C         144.0663  144.7264  162.8568 C.3     1  UNL1        0.0047
     24 C         144.4893  143.4213  162.2504 C.3     1  UNL1        0.0047
@<TRIPOS>UNITY_ATOM_ATTR
19 1
charge -1
@<TRIPOS>BOND
     1    19    20   ar
     2    20    21   ar
     3    20    18    1
     4    18    17    1
     5    17    11    1
     6    11    12   ar
     7    12    13   ar
     8    13    14   ar
     9    14    15    1
    10    14    16   ar
    11    16     1    1
    12     1     2   ar
    13     2     3   ar
    14     3     4   ar
    15     4    22    1
    16    22    23    1
    17    23    24    1
    18     4     5   ar
    19     5     6   ar
    20     6     7   ar
    21     7     8   ar
    22     8     9   ar
    23     9    10   ar
    24    16    11   ar
    25    10     1   ar
    26    24    22    1
    27    10     5   ar
@<TRIPOS>MOLECULE
*****
 24 27 0 0 0
SMALL
GASTEIGER

@<TRIPOS>ATOM
      1 C         140.6060  141.3065  166.5077 C.ar    1  UNL1        0.0676
      2 C         140.2429  142.6990  166.0847 C.ar    1  UNL1        0.0173
      3 C         141.1451  143.4612  165.1600 C.ar    1  UNL1       -0.0028
      4 C         142.4104  142.8309  164.6583 C.ar    1  UNL1       -0.0224
      5 C         142.7736  141.4383  165.0814 C.ar    1  UNL1       -0.0026
      6 C         144.0389  140.8080  164.5797 C.ar    1  UNL1       -0.0003
      7 C         144.4019  139.4154  165.0028 C.ar    1  UNL1       -0.0000
      8 C         143.4997  138.6532  165.9275 C.ar    1  UNL1        0.0000
      9 C         142.2345  139.2836  166.4291 C.ar    1  UNL1        0.0014
     10 C         141.8714  140.6761  166.0061 C.ar    1  UNL1        0.0159
     11 C         139.6394  140.6943  168.9235 C.ar    1  UNL1        0.1978
     12 N         138.6034  139.7410  169.4411 N.ar    1  UNL1       -0.1213
     13 N         138.0275  139.0017  168.2698 N.ar    1  UNL1       -0.1208
     14 C         138.7076  139.4982  167.0285 C.ar    1  UNL1        0.2054
     15 BR        138.4387  139.0306  165.6288 Br      1  UNL1       -0.0059
     16 N         139.7038  140.5443  167.4324 N.ar    1  UNL1       -0.2638
     17 S         140.4659  141.6329  169.7517 S.3     1  UNL1       -0.0693
     18 C         141.9438  141.4134  169.8843 C.3     1  UNL1        0.1066
     19 O         143.0903  143.5786  170.7485 O.co2   1  UNL1       -0.5483
     20 C         142.8938  142.5543  169.6705 C.2     1  UNL1        0.0617
     21 O         143.6472  142.6710  168.3787 O.co2   1  UNL1       -0.5483
     22 C         143.3126  143.5931  163.7336 C.3     1  UNL1        0.0224
     23 C         144.3170  143.6092  162.6197 C.3     1  UNL1        0.0047
     24 C         143.8708  144.8971  163.2459 C.3     1  UNL1        0.0047
@<TRIPOS>UNITY_ATOM_ATTR
19 1
charge -1
@<TRIPOS>BOND
     1    19    20   ar
     2    20    21   ar
     3    20    18    1
     4    18    17    1
     5    17    11    1
     6    11    12   ar
     7    12    13   ar
     8    13    14   ar
     9    14    15    1
    10    14    16   ar
    11    16     1    1
    12     1     2   ar
    13     2     3   ar
    14     3     4   ar
    15     4    22    1
    16    22    23    1
    17    23    24    1
    18     4     5   ar
    19     5     6   ar
    20     6     7   ar
    21     7     8   ar
    22     8     9   ar
    23     9    10   ar
    24    16    11   ar
    25    10     1   ar
    26    24    22    1
    27    10     5   ar
@<TRIPOS>MOLECULE
*****
 24 27 0 0 0
SMALL
GASTEIGER

@<TRIPOS>ATOM
      1 C         141.4179  141.3225  166.2631 C.ar    1  UNL1        0.0676
      2 C         139.9543  141.1689  165.9726 C.ar    1  UNL1        0.0173
      3 C         139.2748  142.1121  165.0247 C.ar    1  UNL1       -0.0028
      4 C         140.0588  143.2089  164.3672 C.ar    1  UNL1       -0.0224
      5 C         141.5224  143.3625  164.6576 C.ar    1  UNL1       -0.0026
      6 C         142.3064  144.4593  164.0001 C.ar    1  UNL1       -0.0003
      7 C         143.7699  144.6129  164.2905 C.ar    1  UNL1       -0.0000
      8 C         144.4495  143.6697  165.2385 C.ar    1  UNL1        0.0000
      9 C         143.6655  142.5729  165.8960 C.ar    1  UNL1        0.0014
     10 C         142.2019  142.4193  165.6056 C.ar    1  UNL1        0.0159
     11 C         142.1334  140.5049  168.7053 C.ar    1  UNL1        0.1978
     12 N         142.9185  139.3482  169.2490 N.ar    1  UNL1       -0.1213
     13 N         143.3677  138.5076  168.0907 N.ar    1  UNL1       -0.1208
     14 C         142.8602  139.1449  166.8312 C.ar    1  UNL1        0.2054
     15 BR        143.0775  138.6369  165.4366 Br      1  UNL1       -0.0059
     16 N         142.0974  140.3793  167.2110 N.ar    1  UNL1       -0.2638
     17 S         141.4962  141.5958  169.5141 S.3     1  UNL1       -0.0693
     18 C         140.0306  141.5384  169.8279 C.3     1  UNL1        0.1066
     19 O         139.4228  139.4568  171.2587 O.co2   1  UNL1       -0.5483
     20 C         139.3442  140.2118  169.9650 C.2     1  UNL1        0.0617
     21 O         138.5791  139.6401  168.8083 O.co2   1  UNL1       -0.5483
     22 C         139.3792  144.1520  163.4192 C.3     1  UNL1        0.0224
     23 C         138.1221  144.7298  162.8397 C.3     1  UNL1        0.0047
     24 C         139.4593  145.2079  162.3568 C.3     1  UNL1        0.0047
@<TRIPOS>UNITY_ATOM_ATTR
19 1
charge -1
@<TRIPOS>BOND
     1    19    20   ar
     2    20    21   ar
     3    20    18    1
     4    18    17    1
     5    17    11    1
     6    11    12   ar
     7    12    13   ar
     8    13    14   ar
     9    14    15    1
    10    14    16   ar
    11    16     1    1
    12     1     2   ar
    13     2     3   ar
    14     3     4   ar
    15     4    22    1
    16    22    23    1
    17    23    24    1
    18     4     5   ar
    19     5     6   ar
    20     6     7   ar
    21     7     8   ar
    22     8     9   ar
    23     9    10   ar
    24    16    11   ar
    25    10     1   ar
    26    24    22    1
    27    10     5   ar
@<TRIPOS>MOLECULE
*****
 24 27 0 0 0
SMALL
GASTEIGER

@<TRIPOS>ATOM
      1 C         140.7924  141.0392  165.8709 C.ar    1  UNL1        0.0676
      2 C         142.1320  140.4471  165.5475 C.ar    1  UNL1        0.0173
      3 C         143.0594  141.1589  164.6076 C.ar    1  UNL1       -0.0028
      4 C         142.6472  142.4627  163.9912 C.ar    1  UNL1       -0.0224
      5 C         141.3074  143.0548  164.3146 C.ar    1  UNL1       -0.0026
      6 C         140.8951  144.3586  163.6981 C.ar    1  UNL1       -0.0003
      7 C         139.5555  144.9507  164.0216 C.ar    1  UNL1       -0.0000
      8 C         138.6281  144.2390  164.9614 C.ar    1  UNL1        0.0000
      9 C         139.0403  142.9352  165.5779 C.ar    1  UNL1        0.0014
     10 C         140.3800  142.3431  165.2545 C.ar    1  UNL1        0.0159
     11 C         139.8489  140.4629  168.3046 C.ar    1  UNL1        0.1978
     12 N         138.7648  139.5745  168.8389 N.ar    1  UNL1       -0.1213
     13 N         138.1109  138.8900  167.6754 N.ar    1  UNL1       -0.1208
     14 C         138.7908  139.3554  166.4219 C.ar    1  UNL1        0.2054
     15 BR        138.4555  138.9243  165.0249 Br      1  UNL1       -0.0059
     16 N         139.8650  140.3275  166.8108 N.ar    1  UNL1       -0.2638
     17 S         140.7574  141.3338  169.1208 S.3     1  UNL1       -0.0693
     18 C         140.5787  142.8231  169.1091 C.3     1  UNL1        0.1066
     19 O         139.9582  145.0242  170.3418 O.co2   1  UNL1       -0.5483
     20 C         140.1078  143.5317  170.3443 C.2     1  UNL1        0.0617
     21 O         139.7863  142.7479  171.5823 O.co2   1  UNL1       -0.5483
     22 C         143.5746  143.1744  163.0513 C.3     1  UNL1        0.0224
     23 C         144.4117  143.1777  161.8067 C.3     1  UNL1        0.0047
     24 C         144.3437  144.4038  162.6680 C.3     1  UNL1        0.0047
@<TRIPOS>UNITY_ATOM_ATTR
19 1
charge -1
@<TRIPOS>BOND
     1    19    20   ar
     2    20    21   ar
     3    20    18    1
     4    18    17    1
     5    17    11    1
     6    11    12   ar
     7    12    13   ar
     8    13    14   ar
     9    14    15    1
    10    14    16   ar
    11    16     1    1
    12     1     2   ar
    13     2     3   ar
    14     3     4   ar
    15     4    22    1
    16    22    23    1
    17    23    24    1
    18     4     5   ar
    19     5     6   ar
    20     6     7   ar
    21     7     8   ar
    22     8     9   ar
    23     9    10   ar
    24    16    11   ar
    25    10     1   ar
    26    24    22    1
    27    10     5   ar
@<TRIPOS>MOLECULE
*****
 24 27 0 0 0
SMALL
GASTEIGER

@<TRIPOS>ATOM
      1 C         142.0670  141.7718  165.9427 C.ar    1  UNL1        0.0676
      2 C         143.0626  142.7787  165.4479 C.ar    1  UNL1        0.0173
      3 C         142.6827  143.7354  164.3568 C.ar    1  UNL1       -0.0028
      4 C         141.3072  143.6852  163.7607 C.ar    1  UNL1       -0.0224
      5 C         140.3115  142.6783  164.2555 C.ar    1  UNL1       -0.0026
      6 C         138.9360  142.6281  163.6594 C.ar    1  UNL1       -0.0003
      7 C         137.9404  141.6212  164.1542 C.ar    1  UNL1       -0.0000
      8 C         138.3203  140.6645  165.2453 C.ar    1  UNL1        0.0000
      9 C         139.6958  140.7147  165.8414 C.ar    1  UNL1        0.0014
     10 C         140.6914  141.7216  165.3466 C.ar    1  UNL1        0.0159
     11 C         142.4577  141.1133  168.5038 C.ar    1  UNL1        0.1978
     12 N         142.9002  139.8747  169.2249 N.ar    1  UNL1       -0.1213
     13 N         143.1629  138.8109  168.2006 N.ar    1  UNL1       -0.1208
     14 C         142.8828  139.3921  166.8464 C.ar    1  UNL1        0.2054
     15 BR        143.0152  138.6759  165.5351 Br      1  UNL1       -0.0059
     16 N         142.4469  140.8151  167.0338 N.ar    1  UNL1       -0.2638
     17 S         142.0904  142.4207  169.1409 S.3     1  UNL1       -0.0693
     18 C         140.6536  142.7332  169.4376 C.3     1  UNL1        0.1066
     19 O         138.7449  141.2318  170.3608 O.co2   1  UNL1       -0.5483
     20 C         139.9657  142.0714  170.5946 C.2     1  UNL1        0.0617
     21 O         140.4984  142.2494  171.9855 O.co2   1  UNL1       -0.5483
     22 C         140.9273  144.6419  162.6696 C.3     1  UNL1        0.0224
     23 C         140.1970  145.8710  162.2157 C.3     1  UNL1        0.0047
     24 C         140.9996  145.0699  161.2338 C.3     1  UNL1        0.0047
@<TRIPOS>UNITY_ATOM_ATTR
19 1
charge -1
@<TRIPOS>BOND
     1    19    20   ar
     2    20    21   ar
     3    20    18    1
     4    18    17    1
     5    17    11    1
     6    11    12   ar
     7    12    13   ar
     8    13    14   ar
     9    14    15    1
    10    14    16   ar
    11    16     1    1
    12     1     2   ar
    13     2     3   ar
    14     3     4   ar
    15     4    22    1
    16    22    23    1
    17    23    24    1
    18     4     5   ar
    19     5     6   ar
    20     6     7   ar
    21     7     8   ar
    22     8     9   ar
    23     9    10   ar
    24    16    11   ar
    25    10     1   ar
    26    24    22    1
    27    10     5   ar
@<TRIPOS>MOLECULE
*****
 24 27 0 0 0
SMALL
GASTEIGER

@<TRIPOS>ATOM
      1 C         141.4475  141.1626  166.1896 C.ar    1  UNL1        0.0676
      2 C         140.0023  140.9636  165.8408 C.ar    1  UNL1        0.0173
      3 C         139.3276  141.8960  164.8788 C.ar    1  UNL1       -0.0028
      4 C         140.0982  143.0274  164.2655 C.ar    1  UNL1       -0.0224
      5 C         141.5435  143.2264  164.6143 C.ar    1  UNL1       -0.0026
      6 C         142.3141  144.3578  164.0011 C.ar    1  UNL1       -0.0003
      7 C         143.7594  144.5568  164.3499 C.ar    1  UNL1       -0.0000
      8 C         144.4340  143.6244  165.3119 C.ar    1  UNL1        0.0000
      9 C         143.6634  142.4930  165.9251 C.ar    1  UNL1        0.0014
     10 C         142.2182  142.2940  165.5764 C.ar    1  UNL1        0.0159
     11 C         142.1199  140.3526  168.6466 C.ar    1  UNL1        0.1978
     12 N         142.9138  139.2097  169.2066 N.ar    1  UNL1       -0.1213
     13 N         143.4068  138.3810  168.0576 N.ar    1  UNL1       -0.1208
     14 C         142.9175  139.0116  166.7876 C.ar    1  UNL1        0.2054
     15 BR        143.1778  138.5115  165.3976 Br      1  UNL1       -0.0059
     16 N         142.1221  140.2302  167.1516 N.ar    1  UNL1       -0.2638
     17 S         141.4426  141.4290  169.4421 S.3     1  UNL1       -0.0693
     18 C         142.1466  142.0546  170.6096 C.3     1  UNL1        0.1066
     19 O         144.2440  142.7616  169.2492 O.co2   1  UNL1       -0.5483
     20 C         143.2863  143.0018  170.3783 C.2     1  UNL1        0.0617
     21 O         143.4685  144.1895  171.2764 O.co2   1  UNL1       -0.5483
     22 C         139.4236  143.9598  163.3035 C.3     1  UNL1        0.0224
     23 C         138.2309  144.7791  162.9086 C.3     1  UNL1        0.0047
     24 C         139.4479  144.7554  162.0322 C.3     1  UNL1        0.0047
@<TRIPOS>UNITY_ATOM_ATTR
19 1
charge -1
@<TRIPOS>BOND
     1    19    20   ar
     2    20    21   ar
     3    20    18    1
     4    18    17    1
     5    17    11    1
     6    11    12   ar
     7    12    13   ar
     8    13    14   ar
     9    14    15    1
    10    14    16   ar
    11    16     1    1
    12     1     2   ar
    13     2     3   ar
    14     3     4   ar
    15     4    22    1
    16    22    23    1
    17    23    24    1
    18     4     5   ar
    19     5     6   ar
    20     6     7   ar
    21     7     8   ar
    22     8     9   ar
    23     9    10   ar
    24    16    11   ar
    25    10     1   ar
    26    24    22    1
    27    10     5   ar
@<TRIPOS>MOLECULE
*****
 24 27 0 0 0
SMALL
GASTEIGER

@<TRIPOS>ATOM
      1 C         140.3698  140.1845  165.5613 C.ar    1  UNL1        0.0676
      2 C         139.8837  139.9699  166.9640 C.ar    1  UNL1        0.0173
      3 C         140.5985  140.6175  168.1128 C.ar    1  UNL1       -0.0028
      4 C         141.7995  141.4796  167.8589 C.ar    1  UNL1       -0.0224
      5 C         142.2856  141.6942  166.4561 C.ar    1  UNL1       -0.0026
      6 C         143.4866  142.5562  166.2022 C.ar    1  UNL1       -0.0003
      7 C         143.9727  142.7708  164.7995 C.ar    1  UNL1       -0.0000
      8 C         143.2579  142.1232  163.6507 C.ar    1  UNL1        0.0000
      9 C         142.0569  141.2611  163.9047 C.ar    1  UNL1        0.0014
     10 C         141.5708  141.0466  165.3074 C.ar    1  UNL1        0.0159
     11 C         138.4938  140.1140  163.6585 C.ar    1  UNL1        0.1978
     12 N         138.0970  139.1323  162.5960 N.ar    1  UNL1       -0.1213
     13 N         139.0130  137.9485  162.6934 N.ar    1  UNL1       -0.1208
     14 C         139.9759  138.1985  163.8161 C.ar    1  UNL1        0.2054
     15 BR        141.0679  137.2727  164.2637 Br      1  UNL1       -0.0059
     16 N         139.6550  139.5369  164.4126 N.ar    1  UNL1       -0.2638
     17 S         137.8436  141.4400  163.9209 S.3     1  UNL1       -0.0693
     18 C         138.5647  142.7100  163.5785 C.3     1  UNL1        0.1066
     19 O         138.1646  145.0196  162.4581 O.co2   1  UNL1       -0.5483
     20 C         138.1331  143.5213  162.3931 C.2     1  UNL1        0.0617
     21 O         137.6700  142.8345  161.1425 O.co2   1  UNL1       -0.5483
     22 C         142.5143  142.1271  169.0077 C.3     1  UNL1        0.0224
     23 C         143.7615  142.3221  169.8179 C.3     1  UNL1        0.0047
     24 C         142.5052  143.0538  170.1872 C.3     1  UNL1        0.0047
@<TRIPOS>UNITY_ATOM_ATTR
19 1
charge -1
@<TRIPOS>BOND
     1    19    20   ar
     2    20    21   ar
     3    20    18    1
     4    18    17    1
     5    17    11    1
     6    11    12   ar
     7    12    13   ar
     8    13    14   ar
     9    14    15    1
    10    14    16   ar
    11    16     1    1
    12     1     2   ar
    13     2     3   ar
    14     3     4   ar
    15     4    22    1
    16    22    23    1
    17    23    24    1
    18     4     5   ar
    19     5     6   ar
    20     6     7   ar
    21     7     8   ar
    22     8     9   ar
    23     9    10   ar
    24    16    11   ar
    25    10     1   ar
    26    24    22    1
    27    10     5   ar
@<TRIPOS>MOLECULE
*****
 24 27 0 0 0
SMALL
GASTEIGER

@<TRIPOS>ATOM
      1 C         142.5501  142.3624  165.2083 C.ar    1  UNL1        0.0676
      2 C         143.1724  142.5665  166.5577 C.ar    1  UNL1        0.0173
      3 C         142.4881  142.0440  167.7860 C.ar    1  UNL1       -0.0028
      4 C         141.1816  141.3173  167.6649 C.ar    1  UNL1       -0.0224
      5 C         140.5592  141.1131  166.3154 C.ar    1  UNL1       -0.0026
      6 C         139.2526  140.3864  166.1942 C.ar    1  UNL1       -0.0003
      7 C         138.6303  140.1823  164.8448 C.ar    1  UNL1       -0.0000
      8 C         139.3145  140.7049  163.6165 C.ar    1  UNL1        0.0000
      9 C         140.6211  141.4316  163.7377 C.ar    1  UNL1        0.0014
     10 C         141.2434  141.6357  165.0871 C.ar    1  UNL1        0.0159
     11 C         142.8863  144.1458  163.2458 C.ar    1  UNL1        0.1978
     12 N         143.8236  144.2786  162.0822 N.ar    1  UNL1       -0.1213
     13 N         144.7510  143.0997  162.0974 N.ar    1  UNL1       -0.1208
     14 C         144.3868  142.2385  163.2702 C.ar    1  UNL1        0.2054
     15 BR        145.0574  140.9558  163.6641 Br      1  UNL1       -0.0059
     16 N         143.2343  142.8850  163.9800 N.ar    1  UNL1       -0.2638
     17 S         141.7928  145.1055  163.6109 S.3     1  UNL1       -0.0693
     18 C         140.5296  145.1460  162.8031 C.3     1  UNL1        0.1066
     19 O         137.9513  144.8691  162.6439 O.co2   1  UNL1       -0.5483
     20 C         139.2104  144.8647  163.4591 C.2     1  UNL1        0.0617
     21 O         139.1502  144.5789  164.9305 O.co2   1  UNL1       -0.5483
     22 C         140.4973  140.7947  168.8932 C.3     1  UNL1        0.0224
     23 C         140.5216  139.9548  170.1357 C.3     1  UNL1        0.0047
     24 C         139.2879  140.7295  169.7780 C.3     1  UNL1        0.0047
@<TRIPOS>UNITY_ATOM_ATTR
19 1
charge -1
@<TRIPOS>BOND
     1    19    20   ar
     2    20    21   ar
     3    20    18    1
     4    18    17    1
     5    17    11    1
     6    11    12   ar
     7    12    13   ar
     8    13    14   ar
     9    14    15    1
    10    14    16   ar
    11    16     1    1
    12     1     2   ar
    13     2     3   ar
    14     3     4   ar
    15     4    22    1
    16    22    23    1
    17    23    24    1
    18     4     5   ar
    19     5     6   ar
    20     6     7   ar
    21     7     8   ar
    22     8     9   ar
    23     9    10   ar
    24    16    11   ar
    25    10     1   ar
    26    24    22    1
    27    10     5   ar
