@<TRIPOS>MOLECULE
*****
 20 22 0 0 0
SMALL
GASTEIGER

@<TRIPOS>ATOM
      1 N         143.5254  138.2687  170.7682 N.pl3   1  UNL1       -0.3441
      2 C         142.5795  139.3799  170.4210 C.ar    1  UNL1        0.1035
      3 C         142.1673  139.5959  168.9951 C.ar    1  UNL1        0.0296
      4 C         141.2214  140.7072  168.6479 C.ar    1  UNL1        0.0074
      5 C         140.6879  141.6024  169.7267 C.ar    1  UNL1        0.1365
      6 N         139.7481  142.7709  169.6878 N.ar    1  UNL1       -0.1258
      7 N         139.5796  143.2770  171.0897 N.ar    1  UNL1       -0.0406
      8 N         140.4152  142.4213  171.9951 N.ar    1  UNL1       -0.1095
      9 C         141.1001  141.3864  171.1527 C.ar    1  UNL1        0.1838
     10 N         142.0460  140.2751  171.4998 N.ar    1  UNL1       -0.3249
     11 H         143.8757  137.6811  170.0602 H       1  UNL1        0.1437
     12 H         143.7960  138.1269  171.7041 H       1  UNL1        0.1437
     13 H         142.3166  140.1333  172.4357 H       1  UNL1        0.1686
     14 C         140.8092  140.9231  167.2219 C.3     1  UNL1        0.0544
     15 C         140.1734  139.8068  166.4477 C.ar    1  UNL1       -0.0177
     16 C         140.9125  139.1674  165.3098 C.ar    1  UNL1       -0.0039
     17 C         140.2767  138.0510  164.5355 C.ar    1  UNL1       -0.0003
     18 C         138.9019  137.5740  164.8992 C.ar    1  UNL1       -0.0000
     19 C         138.1628  138.2134  166.0372 C.ar    1  UNL1       -0.0003
     20 C         138.7985  139.3298  166.8114 C.ar    1  UNL1       -0.0039
@<TRIPOS>BOND
     1     1     2    1
     2     2     3   ar
     3     3     4   ar
     4     4    14    1
     5    14    15    1
     6    15    16   ar
     7    16    17   ar
     8    17    18   ar
     9    18    19   ar
    10    19    20   ar
    11     4     5   ar
    12     5     6   ar
    13     6     7   ar
    14     7     8   ar
    15     8     9   ar
    16     9    10   ar
    17    10     2   ar
    18    20    15   ar
    19     9     5    1
    20     1    11    1
    21     1    12    1
    22    10    13    1
@<TRIPOS>MOLECULE
*****
 20 22 0 0 0
SMALL
GASTEIGER

@<TRIPOS>ATOM
      1 N         142.9934  138.1812  170.2970 N.pl3   1  UNL1       -0.3441
      2 C         142.3078  139.4871  170.0233 C.ar    1  UNL1        0.1035
      3 C         142.3516  140.0833  168.6477 C.ar    1  UNL1        0.0296
      4 C         141.6660  141.3892  168.3740 C.ar    1  UNL1        0.0074
      5 C         140.9367  142.0987  169.4761 C.ar    1  UNL1        0.1365
      6 N         140.1733  143.3896  169.5058 N.ar    1  UNL1       -0.1258
      7 N         139.6578  143.5911  170.8999 N.ar    1  UNL1       -0.0406
      8 N         140.1025  142.4248  171.7318 N.ar    1  UNL1       -0.1095
      9 C         140.8930  141.5024  170.8518 C.ar    1  UNL1        0.1838
     10 N         141.5785  140.1966  171.1254 N.ar    1  UNL1       -0.3249
     11 H         143.4721  137.7155  169.5737 H       1  UNL1        0.1437
     12 H         142.9646  137.7899  171.2000 H       1  UNL1        0.1437
     13 H         141.5498  139.8053  172.0283 H       1  UNL1        0.1686
     14 C         141.7098  141.9854  166.9982 C.3     1  UNL1        0.0544
     15 C         140.4564  142.0742  166.1791 C.ar    1  UNL1       -0.0177
     16 C         139.6799  140.8313  165.8592 C.ar    1  UNL1       -0.0039
     17 C         138.4265  140.9201  165.0400 C.ar    1  UNL1       -0.0003
     18 C         137.9496  142.2517  164.5408 C.ar    1  UNL1       -0.0000
     19 C         138.7261  143.4946  164.8607 C.ar    1  UNL1       -0.0003
     20 C         139.9795  143.4058  165.6798 C.ar    1  UNL1       -0.0039
@<TRIPOS>BOND
     1     1     2    1
     2     2     3   ar
     3     3     4   ar
     4     4    14    1
     5    14    15    1
     6    15    16   ar
     7    16    17   ar
     8    17    18   ar
     9    18    19   ar
    10    19    20   ar
    11     4     5   ar
    12     5     6   ar
    13     6     7   ar
    14     7     8   ar
    15     8     9   ar
    16     9    10   ar
    17    10     2   ar
    18    20    15   ar
    19     9     5    1
    20     1    11    1
    21     1    12    1
    22    10    13    1
@<TRIPOS>MOLECULE
*****
 20 22 0 0 0
SMALL
GASTEIGER

@<TRIPOS>ATOM
      1 N         144.7484  142.9259  170.0586 N.pl3   1  UNL1       -0.3441
      2 C         143.4690  142.1840  169.8084 C.ar    1  UNL1        0.1035
      3 C         143.0495  141.8645  168.4042 C.ar    1  UNL1        0.0296
      4 C         141.7700  141.1225  168.1540 C.ar    1  UNL1        0.0074
      5 C         140.9101  140.7001  169.3082 C.ar    1  UNL1        0.1365
      6 N         139.6058  139.9620  169.3706 N.ar    1  UNL1       -0.1258
      7 N         139.2191  139.8254  170.8134 N.ar    1  UNL1       -0.0406
      8 N         140.2845  140.4790  171.6427 N.ar    1  UNL1       -0.1095
      9 C         141.3296  141.0196  170.7124 C.ar    1  UNL1        0.1838
     10 N         142.6090  141.7616  170.9626 N.ar    1  UNL1       -0.3249
     11 H         145.3129  143.2032  169.3012 H       1  UNL1        0.1437
     12 H         145.0237  143.1356  170.9803 H       1  UNL1        0.1437
     13 H         142.8843  141.9713  171.8842 H       1  UNL1        0.1686
     14 C         141.3506  140.8030  166.7497 C.3     1  UNL1        0.0544
     15 C         140.3110  141.6423  166.0682 C.ar    1  UNL1       -0.0177
     16 C         139.1661  140.9855  165.3554 C.ar    1  UNL1       -0.0039
     17 C         138.1263  141.8248  164.6738 C.ar    1  UNL1       -0.0003
     18 C         138.2315  143.3208  164.7050 C.ar    1  UNL1       -0.0000
     19 C         139.3763  143.9775  165.4177 C.ar    1  UNL1       -0.0003
     20 C         140.4161  143.1383  166.0993 C.ar    1  UNL1       -0.0039
@<TRIPOS>BOND
     1     1     2    1
     2     2     3   ar
     3     3     4   ar
     4     4    14    1
     5    14    15    1
     6    15    16   ar
     7    16    17   ar
     8    17    18   ar
     9    18    19   ar
    10    19    20   ar
    11     4     5   ar
    12     5     6   ar
    13     6     7   ar
    14     7     8   ar
    15     8     9   ar
    16     9    10   ar
    17    10     2   ar
    18    20    15   ar
    19     9     5    1
    20     1    11    1
    21     1    12    1
    22    10    13    1
@<TRIPOS>MOLECULE
*****
 20 22 0 0 0
SMALL
GASTEIGER

@<TRIPOS>ATOM
      1 N         144.8495  143.2084  170.3115 N.pl3   1  UNL1       -0.3441
      2 C         143.6360  142.3840  169.9984 C.ar    1  UNL1        0.1035
      3 C         143.3595  141.9629  168.5856 C.ar    1  UNL1        0.0296
      4 C         142.1460  141.1385  168.2725 C.ar    1  UNL1        0.0074
      5 C         141.2091  140.7353  169.3724 C.ar    1  UNL1        0.1365
      6 N         139.9430  139.9311  169.3678 N.ar    1  UNL1       -0.1258
      7 N         139.4370  139.8553  170.7778 N.ar    1  UNL1       -0.0406
      8 N         140.3904  140.6125  171.6539 N.ar    1  UNL1       -0.1095
      9 C         141.4857  141.1565  170.7852 C.ar    1  UNL1        0.1838
     10 N         142.6992  141.9808  171.0983 N.ar    1  UNL1       -0.3249
     11 H         145.4645  143.4730  169.5897 H       1  UNL1        0.1437
     12 H         145.0310  143.4847  171.2389 H       1  UNL1        0.1437
     13 H         142.8807  142.2572  172.0256 H       1  UNL1        0.1686
     14 C         141.8695  140.7174  166.8596 C.3     1  UNL1        0.0544
     15 C         142.9860  140.6702  165.8590 C.ar    1  UNL1       -0.0177
     16 C         143.6395  139.3619  165.5257 C.ar    1  UNL1       -0.0039
     17 C         144.7560  139.3146  164.5251 C.ar    1  UNL1       -0.0003
     18 C         145.2189  140.5757  163.8577 C.ar    1  UNL1       -0.0000
     19 C         144.5653  141.8840  164.1910 C.ar    1  UNL1       -0.0003
     20 C         143.4489  141.9313  165.1916 C.ar    1  UNL1       -0.0039
@<TRIPOS>BOND
     1     1     2    1
     2     2     3   ar
     3     3     4   ar
     4     4    14    1
     5    14    15    1
     6    15    16   ar
     7    16    17   ar
     8    17    18   ar
     9    18    19   ar
    10    19    20   ar
    11     4     5   ar
    12     5     6   ar
    13     6     7   ar
    14     7     8   ar
    15     8     9   ar
    16     9    10   ar
    17    10     2   ar
    18    20    15   ar
    19     9     5    1
    20     1    11    1
    21     1    12    1
    22    10    13    1
@<TRIPOS>MOLECULE
*****
 20 22 0 0 0
SMALL
GASTEIGER

@<TRIPOS>ATOM
      1 N         143.0611  138.0492  170.3436 N.pl3   1  UNL1       -0.3441
      2 C         142.3422  139.3254  170.0203 C.ar    1  UNL1        0.1035
      3 C         142.2366  139.7869  168.5971 C.ar    1  UNL1        0.0296
      4 C         141.5177  141.0631  168.2738 C.ar    1  UNL1        0.0074
      5 C         140.9045  141.8778  169.3739 C.ar    1  UNL1        0.1365
      6 N         140.1404  143.1686  169.3605 N.ar    1  UNL1       -0.1258
      7 N         139.7739  143.5048  170.7757 N.ar    1  UNL1       -0.0406
      8 N         140.3114  142.4219  171.6636 N.ar    1  UNL1       -0.1095
      9 C         141.0102  141.4164  170.7972 C.ar    1  UNL1        0.1838
     10 N         141.7291  140.1402  171.1204 N.ar    1  UNL1       -0.3249
     11 H         143.4636  137.5144  169.6216 H       1  UNL1        0.1437
     12 H         143.1305  137.7463  171.2778 H       1  UNL1        0.1437
     13 H         141.7984  139.8373  172.0546 H       1  UNL1        0.1686
     14 C         141.4120  141.5246  166.8504 C.3     1  UNL1        0.0544
     15 C         142.6453  141.6326  166.0035 C.ar    1  UNL1       -0.0177
     16 C         143.1196  140.4480  165.2149 C.ar    1  UNL1       -0.0039
     17 C         144.3529  140.5559  164.3679 C.ar    1  UNL1       -0.0003
     18 C         145.1118  141.8484  164.3096 C.ar    1  UNL1       -0.0000
     19 C         144.6375  143.0330  165.0981 C.ar    1  UNL1       -0.0003
     20 C         143.4042  142.9251  165.9451 C.ar    1  UNL1       -0.0039
@<TRIPOS>BOND
     1     1     2    1
     2     2     3   ar
     3     3     4   ar
     4     4    14    1
     5    14    15    1
     6    15    16   ar
     7    16    17   ar
     8    17    18   ar
     9    18    19   ar
    10    19    20   ar
    11     4     5   ar
    12     5     6   ar
    13     6     7   ar
    14     7     8   ar
    15     8     9   ar
    16     9    10   ar
    17    10     2   ar
    18    20    15   ar
    19     9     5    1
    20     1    11    1
    21     1    12    1
    22    10    13    1
@<TRIPOS>MOLECULE
*****
 20 22 0 0 0
SMALL
GASTEIGER

@<TRIPOS>ATOM
      1 N         144.6700  142.8528  170.1098 N.pl3   1  UNL1       -0.3441
      2 C         143.3609  142.1797  169.8210 C.ar    1  UNL1        0.1035
      3 C         142.8628  142.0824  168.4096 C.ar    1  UNL1        0.0296
      4 C         141.5537  141.4094  168.1208 C.ar    1  UNL1        0.0074
      5 C         140.7427  140.8337  169.2437 C.ar    1  UNL1        0.1365
      6 N         139.4247  140.1180  169.2655 N.ar    1  UNL1       -0.1258
      7 N         139.1082  139.7730  170.6905 N.ar    1  UNL1       -0.0406
      8 N         140.2306  140.2755  171.5495 N.ar    1  UNL1       -0.1095
      9 C         141.2408  140.9311  170.6552 C.ar    1  UNL1        0.1838
     10 N         142.5499  141.6040  170.9439 N.ar    1  UNL1       -0.3249
     11 H         145.2024  143.2306  169.3728 H       1  UNL1        0.1437
     12 H         144.9969  142.9166  171.0362 H       1  UNL1        0.1437
     13 H         142.8768  141.6679  171.8703 H       1  UNL1        0.1686
     14 C         141.0557  141.3122  166.7092 C.3     1  UNL1        0.0544
     15 C         141.0086  139.9804  166.0206 C.ar    1  UNL1       -0.0177
     16 C         139.6869  139.3623  165.6729 C.ar    1  UNL1       -0.0039
     17 C         139.6397  138.0305  164.9843 C.ar    1  UNL1       -0.0003
     18 C         140.9143  137.3169  164.6434 C.ar    1  UNL1       -0.0000
     19 C         142.2360  137.9351  164.9911 C.ar    1  UNL1       -0.0003
     20 C         142.2832  139.2668  165.6797 C.ar    1  UNL1       -0.0039
@<TRIPOS>BOND
     1     1     2    1
     2     2     3   ar
     3     3     4   ar
     4     4    14    1
     5    14    15    1
     6    15    16   ar
     7    16    17   ar
     8    17    18   ar
     9    18    19   ar
    10    19    20   ar
    11     4     5   ar
    12     5     6   ar
    13     6     7   ar
    14     7     8   ar
    15     8     9   ar
    16     9    10   ar
    17    10     2   ar
    18    20    15   ar
    19     9     5    1
    20     1    11    1
    21     1    12    1
    22    10    13    1
@<TRIPOS>MOLECULE
*****
 20 22 0 0 0
SMALL
GASTEIGER

@<TRIPOS>ATOM
      1 N         137.8611  139.4739  170.6821 N.pl3   1  UNL1       -0.3441
      2 C         139.0194  140.2541  170.1347 C.ar    1  UNL1        0.1035
      3 C         139.2170  140.3623  168.6518 C.ar    1  UNL1        0.0296
      4 C         140.3753  141.1425  168.1043 C.ar    1  UNL1        0.0074
      5 C         141.3361  141.8144  169.0400 C.ar    1  UNL1        0.1365
      6 N         142.5607  142.6452  168.7948 N.ar    1  UNL1       -0.1258
      7 N         143.1200  143.0505  170.1264 N.ar    1  UNL1       -0.0406
      8 N         142.2410  142.4701  171.1944 N.ar    1  UNL1       -0.1095
      9 C         141.1385  141.7062  170.5230 C.ar    1  UNL1        0.1838
     10 N         139.9802  140.9260  171.0703 N.ar    1  UNL1       -0.3249
     11 H         137.2305  139.0329  170.0681 H       1  UNL1        0.1437
     12 H         137.7314  139.4029  171.6555 H       1  UNL1        0.1437
     13 H         139.8505  140.8550  172.0436 H       1  UNL1        0.1686
     14 C         140.5728  141.2507  166.6213 C.3     1  UNL1        0.0544
     15 C         139.6850  142.1469  165.8098 C.ar    1  UNL1       -0.0177
     16 C         138.6081  141.5559  164.9491 C.ar    1  UNL1       -0.0039
     17 C         137.7202  142.4520  164.1376 C.ar    1  UNL1       -0.0003
     18 C         137.9093  143.9393  164.1868 C.ar    1  UNL1       -0.0000
     19 C         138.9863  144.5303  165.0476 C.ar    1  UNL1       -0.0003
     20 C         139.8741  143.6341  165.8591 C.ar    1  UNL1       -0.0039
@<TRIPOS>BOND
     1     1     2    1
     2     2     3   ar
     3     3     4   ar
     4     4    14    1
     5    14    15    1
     6    15    16   ar
     7    16    17   ar
     8    17    18   ar
     9    18    19   ar
    10    19    20   ar
    11     4     5   ar
    12     5     6   ar
    13     6     7   ar
    14     7     8   ar
    15     8     9   ar
    16     9    10   ar
    17    10     2   ar
    18    20    15   ar
    19     9     5    1
    20     1    11    1
    21     1    12    1
    22    10    13    1
@<TRIPOS>MOLECULE
*****
 20 22 0 0 0
SMALL
GASTEIGER

@<TRIPOS>ATOM
      1 N         143.9578  145.4059  162.8648 N.pl3   1  UNL1       -0.3441
      2 C         142.5851  144.8832  163.1692 C.ar    1  UNL1        0.1035
      3 C         142.4037  143.8057  164.1967 C.ar    1  UNL1        0.0296
      4 C         141.0310  143.2830  164.5011 C.ar    1  UNL1        0.0074
      5 C         139.8398  143.8379  163.7779 C.ar    1  UNL1        0.1365
      6 N         138.3759  143.5226  163.8655 N.ar    1  UNL1       -0.1258
      7 N         137.6526  144.4054  162.8921 N.ar    1  UNL1       -0.0406
      8 N         138.6695  145.2662  162.2029 N.ar    1  UNL1       -0.1095
      9 C         140.0212  144.9155  162.7504 C.ar    1  UNL1        0.1838
     10 N         141.3939  145.4382  162.4460 N.ar    1  UNL1       -0.3249
     11 H         144.7397  145.0417  163.3394 H       1  UNL1        0.1437
     12 H         144.0768  146.1132  162.1904 H       1  UNL1        0.1437
     13 H         141.5130  146.1454  161.7716 H       1  UNL1        0.1686
     14 C         140.8497  142.2053  165.5287 C.3     1  UNL1        0.0544
     15 C         141.2634  142.4471  166.9500 C.ar    1  UNL1       -0.0177
     16 C         142.6490  142.0886  167.3991 C.ar    1  UNL1       -0.0039
     17 C         143.0629  142.3303  168.8204 C.ar    1  UNL1       -0.0003
     18 C         142.0912  142.9305  169.7928 C.ar    1  UNL1       -0.0000
     19 C         140.7056  143.2890  169.3437 C.ar    1  UNL1       -0.0003
     20 C         140.2917  143.0473  167.9224 C.ar    1  UNL1       -0.0039
@<TRIPOS>BOND
     1     1     2    1
     2     2     3   ar
     3     3     4   ar
     4     4    14    1
     5    14    15    1
     6    15    16   ar
     7    16    17   ar
     8    17    18   ar
     9    18    19   ar
    10    19    20   ar
    11     4     5   ar
    12     5     6   ar
    13     6     7   ar
    14     7     8   ar
    15     8     9   ar
    16     9    10   ar
    17    10     2   ar
    18    20    15   ar
    19     9     5    1
    20     1    11    1
    21     1    12    1
    22    10    13    1
@<TRIPOS>MOLECULE
*****
 20 22 0 0 0
SMALL
GASTEIGER

@<TRIPOS>ATOM
      1 N         139.1861  146.5193  161.3228 N.pl3   1  UNL1       -0.3441
      2 C         140.1054  145.7073  162.1864 C.ar    1  UNL1        0.1035
      3 C         139.6032  145.1208  163.4723 C.ar    1  UNL1        0.0296
      4 C         140.5225  144.3088  164.3359 C.ar    1  UNL1        0.0074
      5 C         141.9440  144.0834  163.9133 C.ar    1  UNL1        0.1365
      6 N         143.0741  143.3325  164.5529 N.ar    1  UNL1       -0.1258
      7 N         144.2748  143.4550  163.6621 N.ar    1  UNL1       -0.0406
      8 N         143.8867  144.2816  162.4720 N.ar    1  UNL1       -0.1095
      9 C         142.4462  144.6699  162.6273 C.ar    1  UNL1        0.1838
     10 N         141.5269  145.4819  161.7639 N.ar    1  UNL1       -0.3249
     11 H         138.2531  146.6673  161.6001 H       1  UNL1        0.1437
     12 H         139.5157  146.9042  160.4788 H       1  UNL1        0.1437
     13 H         141.8565  145.8669  160.9198 H       1  UNL1        0.1686
     14 C         140.0203  143.7223  165.6219 C.3     1  UNL1        0.0544
     15 C         139.5559  142.2966  165.6651 C.ar    1  UNL1       -0.0177
     16 C         140.0914  141.3649  166.7116 C.ar    1  UNL1       -0.0039
     17 C         139.6272  139.9393  166.7549 C.ar    1  UNL1       -0.0003
     18 C         138.6274  139.4453  165.7518 C.ar    1  UNL1       -0.0000
     19 C         138.0918  140.3770  164.7053 C.ar    1  UNL1       -0.0003
     20 C         138.5561  141.8027  164.6619 C.ar    1  UNL1       -0.0039
@<TRIPOS>BOND
     1     1     2    1
     2     2     3   ar
     3     3     4   ar
     4     4    14    1
     5    14    15    1
     6    15    16   ar
     7    16    17   ar
     8    17    18   ar
     9    18    19   ar
    10    19    20   ar
    11     4     5   ar
    12     5     6   ar
    13     6     7   ar
    14     7     8   ar
    15     8     9   ar
    16     9    10   ar
    17    10     2   ar
    18    20    15   ar
    19     9     5    1
    20     1    11    1
    21     1    12    1
    22    10    13    1
