@<TRIPOS>MOLECULE
*****
 31 35 0 0 0
SMALL
GASTEIGER

@<TRIPOS>ATOM
      1 C         137.8342  138.9462  166.5058 C.3     1  UNL1        0.0285
      2 C         139.0225  139.7019  165.9891 C.3     1  UNL1        0.1321
      3 C         139.2658  139.7982  164.5121 C.3     1  UNL1        0.2279
      4 O         140.4540  140.5538  163.9954 O.3     1  UNL1       -0.4707
      5 C         141.3990  141.2132  164.9557 C.ar    1  UNL1        0.1697
      6 C         142.5873  141.9688  164.4390 C.ar    1  UNL1        0.1115
      7 C         143.5323  142.6282  165.3993 C.ar    1  UNL1        0.1564
      8 F         144.7206  143.3838  164.8826 F       1  UNL1       -0.2028
      9 C         143.2890  142.5319  166.8764 C.ar    1  UNL1        0.0326
     10 C         142.1008  141.7763  167.3931 C.ar    1  UNL1        0.0214
     11 C         141.8575  141.6800  168.8700 C.ar    1  UNL1        0.0075
     12 C         140.6692  140.9243  169.3867 C.ar    1  UNL1        0.0702
     13 C         139.7242  140.2650  168.4264 C.ar    1  UNL1        0.2620
     14 O         138.5359  139.5093  168.9431 O.2     1  UNL1       -0.2669
     15 N         139.9674  140.3612  166.9494 N.ar    1  UNL1       -0.2909
     16 C         141.1557  141.1169  166.4327 C.ar    1  UNL1        0.0980
     17 N         142.8306  142.0651  162.9621 N.pl3   1  UNL1       -0.3033
     18 C         143.5320  141.0444  162.1156 C.3     1  UNL1        0.0910
     19 C         143.5501  141.5475  160.7025 C.3     1  UNL1        0.0227
     20 C         144.1059  140.9652  159.4369 C.3     1  UNL1        0.0018
     21 C         143.9715  141.7143  158.1443 C.3     1  UNL1        0.0014
     22 C         143.2813  143.0458  158.1174 C.3     1  UNL1        0.0155
     23 C         142.7255  143.6282  159.3831 C.3     1  UNL1        0.0525
     24 N         142.0354  144.9597  159.3562 N.3     1  UNL1       -0.3221
     25 C         142.8599  142.8791  160.6757 C.3     1  UNL1        0.0356
     26 C         142.4153  143.1989  162.0721 C.3     1  UNL1        0.0923
     27 H         142.0349  145.3232  158.4032 H       1  UNL1        0.1188
     28 H         142.5279  145.6104  159.9681 H       1  UNL1        0.1188
     29 C         140.4259  140.8281  170.8638 C.2     1  UNL1        0.0775
     30 O         140.7067  142.0064  171.7485 O.co2   1  UNL1       -0.5444
     31 O         139.9018  139.5535  171.4561 O.co2   1  UNL1       -0.5444
@<TRIPOS>UNITY_ATOM_ATTR
30 1
charge -1
@<TRIPOS>BOND
     1     2     1    1
     2     2     3    1
     3     3     4    1
     4     4     5    1
     5     5     6   ar
     6     6    17    1
     7    17    18    1
     8    19    18    1
     9    19    20    1
    10    20    21    1
    11    21    22    1
    12    22    23    1
    13    23    24    1
    14    23    25    1
    15    25    26    1
    16     6     7   ar
    17     7     8    1
    18     7     9   ar
    19     9    10   ar
    20    10    11   ar
    21    11    12   ar
    22    12    29    1
    23    29    30   ar
    24    29    31   ar
    25    12    13   ar
    26    13    14    2
    27    13    15   ar
    28    15    16   ar
    29    15     2    1
    30    16     5   ar
    31    26    17    1
    32    16    10   ar
    33    25    19    1
    34    24    27    1
    35    24    28    1
@<TRIPOS>MOLECULE
*****
 31 35 0 0 0
SMALL
GASTEIGER

@<TRIPOS>ATOM
      1 C         137.5957  138.5013  167.4500 C.3     1  UNL1        0.0285
      2 C         138.7083  139.1168  166.6543 C.3     1  UNL1        0.1321
      3 C         138.8831  138.7591  165.2081 C.3     1  UNL1        0.2279
      4 O         139.9957  139.3746  164.4124 O.3     1  UNL1       -0.4707
      5 C         140.9336  140.3479  165.0628 C.ar    1  UNL1        0.1697
      6 C         142.0462  140.9634  164.2671 C.ar    1  UNL1        0.1115
      7 C         142.9841  141.9366  164.9176 C.ar    1  UNL1        0.1564
      8 F         144.0967  142.5522  164.1218 F       1  UNL1       -0.2028
      9 C         142.8094  142.2944  166.3638 C.ar    1  UNL1        0.0326
     10 C         141.6967  141.6789  167.1595 C.ar    1  UNL1        0.0214
     11 C         141.5220  142.0366  168.6057 C.ar    1  UNL1        0.0075
     12 C         140.4094  141.4210  169.4014 C.ar    1  UNL1        0.0702
     13 C         139.4715  140.4478  168.7510 C.ar    1  UNL1        0.2620
     14 O         138.3588  139.8323  169.5467 O.2     1  UNL1       -0.2669
     15 N         139.6462  140.0901  167.3047 N.ar    1  UNL1       -0.2909
     16 C         140.7588  140.7056  166.5090 C.ar    1  UNL1        0.0980
     17 N         142.2210  140.6057  162.8210 N.pl3   1  UNL1       -0.3033
     18 C         142.1034  141.5474  161.6593 C.3     1  UNL1        0.0910
     19 C         142.3537  140.7671  160.4028 C.3     1  UNL1        0.0227
     20 C         142.3689  141.1692  158.9578 C.3     1  UNL1        0.0018
     21 C         142.6564  140.1475  157.8980 C.3     1  UNL1        0.0014
     22 C         142.9287  138.7236  158.2831 C.3     1  UNL1        0.0155
     23 C         142.9135  138.3214  159.7281 C.3     1  UNL1        0.0525
     24 N         143.1858  136.8975  160.1132 N.3     1  UNL1       -0.3221
     25 C         142.6260  139.3432  160.7880 C.3     1  UNL1        0.0356
     26 C         142.5440  139.2434  162.2824 C.3     1  UNL1        0.0923
     27 H         143.3596  136.3454  159.2733 H       1  UNL1        0.1188
     28 H         142.3783  136.5187  160.6080 H       1  UNL1        0.1188
     29 C         140.2347  141.7788  170.8477 C.2     1  UNL1        0.0775
     30 O         139.5686  143.0684  171.2261 O.co2   1  UNL1       -0.5444
     31 O         140.7260  140.8469  171.9155 O.co2   1  UNL1       -0.5444
@<TRIPOS>UNITY_ATOM_ATTR
30 1
charge -1
@<TRIPOS>BOND
     1     2     1    1
     2     2     3    1
     3     3     4    1
     4     4     5    1
     5     5     6   ar
     6     6    17    1
     7    17    18    1
     8    19    18    1
     9    19    20    1
    10    20    21    1
    11    21    22    1
    12    22    23    1
    13    23    24    1
    14    23    25    1
    15    25    26    1
    16     6     7   ar
    17     7     8    1
    18     7     9   ar
    19     9    10   ar
    20    10    11   ar
    21    11    12   ar
    22    12    29    1
    23    29    30   ar
    24    29    31   ar
    25    12    13   ar
    26    13    14    2
    27    13    15   ar
    28    15    16   ar
    29    15     2    1
    30    16     5   ar
    31    26    17    1
    32    16    10   ar
    33    25    19    1
    34    24    27    1
    35    24    28    1
@<TRIPOS>MOLECULE
*****
 31 35 0 0 0
SMALL
GASTEIGER

@<TRIPOS>ATOM
      1 C         143.3600  142.5225  167.0028 C.3     1  UNL1        0.0285
      2 C         142.5553  141.6184  166.1168 C.3     1  UNL1        0.1321
      3 C         142.9485  141.4307  164.6815 C.3     1  UNL1        0.2279
      4 O         142.1439  140.5265  163.7955 O.3     1  UNL1       -0.4707
      5 C         140.9459  139.8102  164.3447 C.ar    1  UNL1        0.1697
      6 C         140.1412  138.9061  163.4587 C.ar    1  UNL1        0.1115
      7 C         138.9433  138.1897  164.0079 C.ar    1  UNL1        0.1564
      8 F         138.1386  137.2856  163.1219 F       1  UNL1       -0.2028
      9 C         138.5499  138.3775  165.4432 C.ar    1  UNL1        0.0326
     10 C         139.3546  139.2816  166.3293 C.ar    1  UNL1        0.0214
     11 C         138.9614  139.4694  167.7645 C.ar    1  UNL1        0.0075
     12 C         139.7660  140.3735  168.6506 C.ar    1  UNL1        0.0702
     13 C         140.9640  141.0898  168.1013 C.ar    1  UNL1        0.2620
     14 O         141.7687  141.9939  168.9874 O.2     1  UNL1       -0.2669
     15 N         141.3573  140.9021  166.6660 N.ar    1  UNL1       -0.2909
     16 C         140.5526  139.9980  165.7800 C.ar    1  UNL1        0.0980
     17 N         140.5345  138.7183  162.0234 N.pl3   1  UNL1       -0.3033
     18 C         141.8278  138.1385  161.5322 C.3     1  UNL1        0.0910
     19 C         141.7961  138.1392  160.0324 C.3     1  UNL1        0.0227
     20 C         142.7931  137.6865  159.0072 C.3     1  UNL1        0.0018
     21 C         142.4772  137.8140  157.5464 C.3     1  UNL1        0.0014
     22 C         141.1644  138.3942  157.1108 C.3     1  UNL1        0.0155
     23 C         140.1674  138.8470  158.1360 C.3     1  UNL1        0.0525
     24 N         138.8546  139.4272  157.7004 N.3     1  UNL1       -0.3221
     25 C         140.4832  138.7195  159.5968 C.3     1  UNL1        0.0356
     26 C         139.7035  139.0774  160.8272 C.3     1  UNL1        0.0923
     27 H         138.8091  139.4383  156.6814 H       1  UNL1        0.1188
     28 H         138.7694  140.3798  158.0549 H       1  UNL1        0.1188
     29 C         139.3727  140.5612  170.0859 C.2     1  UNL1        0.0775
     30 O         138.8681  141.8928  170.5573 O.co2   1  UNL1       -0.5444
     31 O         139.4840  139.4173  171.0498 O.co2   1  UNL1       -0.5444
@<TRIPOS>UNITY_ATOM_ATTR
30 1
charge -1
@<TRIPOS>BOND
     1     2     1    1
     2     2     3    1
     3     3     4    1
     4     4     5    1
     5     5     6   ar
     6     6    17    1
     7    17    18    1
     8    19    18    1
     9    19    20    1
    10    20    21    1
    11    21    22    1
    12    22    23    1
    13    23    24    1
    14    23    25    1
    15    25    26    1
    16     6     7   ar
    17     7     8    1
    18     7     9   ar
    19     9    10   ar
    20    10    11   ar
    21    11    12   ar
    22    12    29    1
    23    29    30   ar
    24    29    31   ar
    25    12    13   ar
    26    13    14    2
    27    13    15   ar
    28    15    16   ar
    29    15     2    1
    30    16     5   ar
    31    26    17    1
    32    16    10   ar
    33    25    19    1
    34    24    27    1
    35    24    28    1
@<TRIPOS>MOLECULE
*****
 31 35 0 0 0
SMALL
GASTEIGER

@<TRIPOS>ATOM
      1 C         139.9566  144.5865  160.9775 C.3     1  UNL1        0.0285
      2 C         139.8552  143.3762  161.8579 C.3     1  UNL1        0.1321
      3 C         140.3333  143.4397  163.2782 C.3     1  UNL1        0.2279
      4 O         140.2318  142.2295  164.1585 O.3     1  UNL1       -0.4707
      5 C         139.6523  140.9557  163.6186 C.ar    1  UNL1        0.1697
      6 C         139.5508  139.7455  164.4989 C.ar    1  UNL1        0.1115
      7 C         138.9713  138.4717  163.9589 C.ar    1  UNL1        0.1564
      8 F         138.8698  137.2614  164.8393 F       1  UNL1       -0.2028
      9 C         138.4932  138.4081  162.5385 C.ar    1  UNL1        0.0326
     10 C         138.5946  139.6184  161.6582 C.ar    1  UNL1        0.0214
     11 C         138.1165  139.5549  160.2379 C.ar    1  UNL1        0.0075
     12 C         138.2180  140.7651  159.3575 C.ar    1  UNL1        0.0702
     13 C         138.7975  142.0389  159.8975 C.ar    1  UNL1        0.2620
     14 O         138.8990  143.2491  159.0172 O.2     1  UNL1       -0.2669
     15 N         139.2756  142.1024  161.3179 N.ar    1  UNL1       -0.2909
     16 C         139.1742  140.8922  162.1982 C.ar    1  UNL1        0.0980
     17 N         140.0289  139.8090  165.9192 N.pl3   1  UNL1       -0.3033
     18 C         141.4600  139.8067  166.3688 C.3     1  UNL1        0.0910
     19 C         141.4754  139.8822  167.8669 C.3     1  UNL1        0.0227
     20 C         142.6001  139.9128  168.8588 C.3     1  UNL1        0.0018
     21 C         142.3034  139.9922  170.3270 C.3     1  UNL1        0.0014
     22 C         140.8819  140.0412  170.8033 C.3     1  UNL1        0.0155
     23 C         139.7570  140.0107  169.8113 C.3     1  UNL1        0.0525
     24 N         138.3355  140.0596  170.2876 N.3     1  UNL1       -0.3221
     25 C         140.0538  139.9312  168.3431 C.3     1  UNL1        0.0356
     26 C         139.1598  139.8859  167.1395 C.3     1  UNL1        0.0923
     27 H         138.3198  140.1115  171.3062 H       1  UNL1        0.1188
     28 H         137.8455  139.2187  169.9824 H       1  UNL1        0.1188
     29 C         137.7399  140.7015  157.9371 C.2     1  UNL1        0.0775
     30 O         136.2769  140.5468  157.6445 O.co2   1  UNL1       -0.5444
     31 O         138.7248  140.7927  156.8095 O.co2   1  UNL1       -0.5444
@<TRIPOS>UNITY_ATOM_ATTR
30 1
charge -1
@<TRIPOS>BOND
     1     2     1    1
     2     2     3    1
     3     3     4    1
     4     4     5    1
     5     5     6   ar
     6     6    17    1
     7    17    18    1
     8    19    18    1
     9    19    20    1
    10    20    21    1
    11    21    22    1
    12    22    23    1
    13    23    24    1
    14    23    25    1
    15    25    26    1
    16     6     7   ar
    17     7     8    1
    18     7     9   ar
    19     9    10   ar
    20    10    11   ar
    21    11    12   ar
    22    12    29    1
    23    29    30   ar
    24    29    31   ar
    25    12    13   ar
    26    13    14    2
    27    13    15   ar
    28    15    16   ar
    29    15     2    1
    30    16     5   ar
    31    26    17    1
    32    16    10   ar
    33    25    19    1
    34    24    27    1
    35    24    28    1
@<TRIPOS>MOLECULE
*****
 31 35 0 0 0
SMALL
GASTEIGER

@<TRIPOS>ATOM
      1 C         138.4502  139.4918  166.8662 C.3     1  UNL1        0.0285
      2 C         139.4269  140.3869  166.1627 C.3     1  UNL1        0.1321
      3 C         139.1796  140.7960  164.7409 C.3     1  UNL1        0.2279
      4 O         140.1563  141.6911  164.0373 O.3     1  UNL1       -0.4707
      5 C         141.3801  142.1772  164.7556 C.ar    1  UNL1        0.1697
      6 C         142.3567  143.0723  164.0521 C.ar    1  UNL1        0.1115
      7 C         143.5806  143.5584  164.7703 C.ar    1  UNL1        0.1564
      8 F         144.5572  144.4535  164.0668 F       1  UNL1       -0.2028
      9 C         143.8278  143.1493  166.1922 C.ar    1  UNL1        0.0326
     10 C         142.8512  142.2542  166.8957 C.ar    1  UNL1        0.0214
     11 C         143.0984  141.8451  168.3175 C.ar    1  UNL1        0.0075
     12 C         142.1218  140.9500  169.0210 C.ar    1  UNL1        0.0702
     13 C         140.8980  140.4640  168.3028 C.ar    1  UNL1        0.2620
     14 O         139.9213  139.5688  169.0063 O.2     1  UNL1       -0.2669
     15 N         140.6507  140.8730  166.8809 N.ar    1  UNL1       -0.2909
     16 C         141.6273  141.7681  166.1774 C.ar    1  UNL1        0.0980
     17 N         142.1095  143.4814  162.6303 N.pl3   1  UNL1       -0.3033
     18 C         141.0270  144.4040  162.1537 C.3     1  UNL1        0.0910
     19 C         141.1499  144.5325  160.6642 C.3     1  UNL1        0.0227
     20 C         140.3566  145.3083  159.6549 C.3     1  UNL1        0.0018
     21 C         140.7217  145.2410  158.2016 C.3     1  UNL1        0.0014
     22 C         141.8801  144.3978  157.7576 C.3     1  UNL1        0.0155
     23 C         142.6735  143.6219  158.7669 C.3     1  UNL1        0.0525
     24 N         143.8318  142.7787  158.3229 N.3     1  UNL1       -0.3221
     25 C         142.3083  143.6892  160.2202 C.3     1  UNL1        0.0356
     26 C         142.9014  143.0397  161.4353 C.3     1  UNL1        0.0923
     27 H         143.9359  142.8499  157.3107 H       1  UNL1        0.1188
     28 H         143.6627  141.8062  158.5798 H       1  UNL1        0.1188
     29 C         142.3691  140.5410  170.4429 C.2     1  UNL1        0.0775
     30 O         141.5676  141.1574  171.5508 O.co2   1  UNL1       -0.5444
     31 O         143.4178  139.5155  170.7567 O.co2   1  UNL1       -0.5444
@<TRIPOS>UNITY_ATOM_ATTR
30 1
charge -1
@<TRIPOS>BOND
     1     2     1    1
     2     2     3    1
     3     3     4    1
     4     4     5    1
     5     5     6   ar
     6     6    17    1
     7    17    18    1
     8    19    18    1
     9    19    20    1
    10    20    21    1
    11    21    22    1
    12    22    23    1
    13    23    24    1
    14    23    25    1
    15    25    26    1
    16     6     7   ar
    17     7     8    1
    18     7     9   ar
    19     9    10   ar
    20    10    11   ar
    21    11    12   ar
    22    12    29    1
    23    29    30   ar
    24    29    31   ar
    25    12    13   ar
    26    13    14    2
    27    13    15   ar
    28    15    16   ar
    29    15     2    1
    30    16     5   ar
    31    26    17    1
    32    16    10   ar
    33    25    19    1
    34    24    27    1
    35    24    28    1
@<TRIPOS>MOLECULE
*****
 31 35 0 0 0
SMALL
GASTEIGER

@<TRIPOS>ATOM
      1 C         142.4870  142.5693  160.4513 C.3     1  UNL1        0.0285
      2 C         141.9139  141.7177  161.5451 C.3     1  UNL1        0.1321
      3 C         142.2053  142.0435  162.9799 C.3     1  UNL1        0.2279
      4 O         141.6322  141.1919  164.0737 O.3     1  UNL1       -0.4707
      5 C         140.7676  140.0146  163.7326 C.ar    1  UNL1        0.1697
      6 C         140.1944  139.1630  164.8264 C.ar    1  UNL1        0.1115
      7 C         139.3299  137.9857  164.4853 C.ar    1  UNL1        0.1564
      8 F         138.7567  137.1342  165.5791 F       1  UNL1       -0.2028
      9 C         139.0384  137.6599  163.0504 C.ar    1  UNL1        0.0326
     10 C         139.6116  138.5114  161.9566 C.ar    1  UNL1        0.0214
     11 C         139.3202  138.1857  160.5217 C.ar    1  UNL1        0.0075
     12 C         139.8933  139.0372  159.4280 C.ar    1  UNL1        0.0702
     13 C         140.7579  140.2146  159.7690 C.ar    1  UNL1        0.2620
     14 O         141.3310  141.0661  158.6753 O.2     1  UNL1       -0.2669
     15 N         141.0493  140.5404  161.2040 N.ar    1  UNL1       -0.2909
     16 C         140.4762  139.6888  162.2978 C.ar    1  UNL1        0.0980
     17 N         140.4859  139.4888  166.2613 N.pl3   1  UNL1       -0.3033
     18 C         141.8459  139.6899  166.8611 C.3     1  UNL1        0.0910
     19 C         141.6690  139.9961  168.3189 C.3     1  UNL1        0.0227
     20 C         142.6560  140.2841  169.4110 C.3     1  UNL1        0.0018
     21 C         142.1737  140.5603  170.8042 C.3     1  UNL1        0.0014
     22 C         140.7043  140.5485  171.1054 C.3     1  UNL1        0.0155
     23 C         139.7172  140.2604  170.0132 C.3     1  UNL1        0.0525
     24 N         138.2478  140.2486  170.3143 N.3     1  UNL1       -0.3221
     25 C         140.1995  139.9842  168.6200 C.3     1  UNL1        0.0356
     26 C         139.4683  139.6707  167.3484 C.3     1  UNL1        0.0923
     27 H         138.1016  140.4548  171.3025 H       1  UNL1        0.1188
     28 H         137.8639  139.3286  170.0985 H       1  UNL1        0.1188
     29 C         139.6019  138.7114  157.9930 C.2     1  UNL1        0.0775
     30 O         140.3827  137.6383  157.2941 O.co2   1  UNL1       -0.5444
     31 O         138.5295  139.4588  157.2571 O.co2   1  UNL1       -0.5444
@<TRIPOS>UNITY_ATOM_ATTR
30 1
charge -1
@<TRIPOS>BOND
     1     2     1    1
     2     2     3    1
     3     3     4    1
     4     4     5    1
     5     5     6   ar
     6     6    17    1
     7    17    18    1
     8    19    18    1
     9    19    20    1
    10    20    21    1
    11    21    22    1
    12    22    23    1
    13    23    24    1
    14    23    25    1
    15    25    26    1
    16     6     7   ar
    17     7     8    1
    18     7     9   ar
    19     9    10   ar
    20    10    11   ar
    21    11    12   ar
    22    12    29    1
    23    29    30   ar
    24    29    31   ar
    25    12    13   ar
    26    13    14    2
    27    13    15   ar
    28    15    16   ar
    29    15     2    1
    30    16     5   ar
    31    26    17    1
    32    16    10   ar
    33    25    19    1
    34    24    27    1
    35    24    28    1
@<TRIPOS>MOLECULE
*****
 31 35 0 0 0
SMALL
GASTEIGER

@<TRIPOS>ATOM
      1 C         144.1046  141.2391  160.2725 C.3     1  UNL1        0.0285
      2 C         143.2841  141.7216  161.4318 C.3     1  UNL1        0.1321
      3 C         143.3754  141.0247  162.7569 C.3     1  UNL1        0.2279
      4 O         142.5549  141.5072  163.9162 O.3     1  UNL1       -0.4707
      5 C         141.6431  142.6866  163.7504 C.ar    1  UNL1        0.1697
      6 C         140.8227  143.1691  164.9097 C.ar    1  UNL1        0.1115
      7 C         139.9109  144.3486  164.7439 C.ar    1  UNL1        0.1564
      8 F         139.0904  144.8311  165.9032 F       1  UNL1       -0.2028
      9 C         139.8195  145.0456  163.4188 C.ar    1  UNL1        0.0326
     10 C         140.6400  144.5630  162.2595 C.ar    1  UNL1        0.0214
     11 C         140.5487  145.2600  160.9344 C.ar    1  UNL1        0.0075
     12 C         141.3692  144.7774  159.7751 C.ar    1  UNL1        0.0702
     13 C         142.2810  143.5980  159.9409 C.ar    1  UNL1        0.2620
     14 O         143.1015  143.1155  158.7816 O.2     1  UNL1       -0.2669
     15 N         142.3723  142.9010  161.2660 N.ar    1  UNL1       -0.2909
     16 C         141.5518  143.3835  162.4253 C.ar    1  UNL1        0.0980
     17 N         140.9140  142.4722  166.2348 N.pl3   1  UNL1       -0.3033
     18 C         139.8905  141.5406  166.8134 C.3     1  UNL1        0.0910
     19 C         140.3888  141.0771  168.1503 C.3     1  UNL1        0.0227
     20 C         139.8023  140.1510  169.1741 C.3     1  UNL1        0.0018
     21 C         140.5470  139.8700  170.4454 C.3     1  UNL1        0.0014
     22 C         141.8783  140.5152  170.6930 C.3     1  UNL1        0.0155
     23 C         142.4650  141.4413  169.6692 C.3     1  UNL1        0.0525
     24 N         143.7963  142.0865  169.9168 N.3     1  UNL1       -0.3221
     25 C         141.7202  141.7223  168.3978 C.3     1  UNL1        0.0356
     26 C         142.0447  142.5845  167.2141 C.3     1  UNL1        0.0923
     27 H         144.1566  141.7859  170.8224 H       1  UNL1        0.1188
     28 H         143.6885  143.1008  169.9134 H       1  UNL1        0.1188
     29 C         141.2779  145.4744  158.4499 C.2     1  UNL1        0.0775
     30 O         140.0054  145.4159  157.6579 O.co2   1  UNL1       -0.5444
     31 O         142.4590  146.2299  157.9169 O.co2   1  UNL1       -0.5444
@<TRIPOS>UNITY_ATOM_ATTR
30 1
charge -1
@<TRIPOS>BOND
     1     2     1    1
     2     2     3    1
     3     3     4    1
     4     4     5    1
     5     5     6   ar
     6     6    17    1
     7    17    18    1
     8    19    18    1
     9    19    20    1
    10    20    21    1
    11    21    22    1
    12    22    23    1
    13    23    24    1
    14    23    25    1
    15    25    26    1
    16     6     7   ar
    17     7     8    1
    18     7     9   ar
    19     9    10   ar
    20    10    11   ar
    21    11    12   ar
    22    12    29    1
    23    29    30   ar
    24    29    31   ar
    25    12    13   ar
    26    13    14    2
    27    13    15   ar
    28    15    16   ar
    29    15     2    1
    30    16     5   ar
    31    26    17    1
    32    16    10   ar
    33    25    19    1
    34    24    27    1
    35    24    28    1
@<TRIPOS>MOLECULE
*****
 31 35 0 0 0
SMALL
GASTEIGER

@<TRIPOS>ATOM
      1 C         143.4906  138.7223  166.1653 C.3     1  UNL1        0.0285
      2 C         142.6544  139.8168  165.5712 C.3     1  UNL1        0.1321
      3 C         142.5254  139.9377  164.0817 C.3     1  UNL1        0.2279
      4 O         141.6892  141.0322  163.4877 O.3     1  UNL1       -0.4707
      5 C         140.9821  142.0058  164.3832 C.ar    1  UNL1        0.1697
      6 C         140.1459  143.1003  163.7891 C.ar    1  UNL1        0.1115
      7 C         139.4388  144.0739  164.6846 C.ar    1  UNL1        0.1564
      8 F         138.6026  145.1684  164.0906 F       1  UNL1       -0.2028
      9 C         139.5678  143.9531  166.1742 C.ar    1  UNL1        0.0326
     10 C         140.4040  142.8586  166.7682 C.ar    1  UNL1        0.0214
     11 C         140.5330  142.7378  168.2578 C.ar    1  UNL1        0.0075
     12 C         141.3692  141.6433  168.8518 C.ar    1  UNL1        0.0702
     13 C         142.0763  140.6696  167.9563 C.ar    1  UNL1        0.2620
     14 O         142.9125  139.5751  168.5503 O.2     1  UNL1       -0.2669
     15 N         141.9473  140.7905  166.4667 N.ar    1  UNL1       -0.2909
     16 C         141.1111  141.8850  165.8727 C.ar    1  UNL1        0.0980
     17 N         140.0168  143.2212  162.2996 N.pl3   1  UNL1       -0.3033
     18 C         139.0355  142.4843  161.4369 C.3     1  UNL1        0.0910
     19 C         139.2587  142.9079  160.0153 C.3     1  UNL1        0.0227
     20 C         138.5874  142.5133  158.7333 C.3     1  UNL1        0.0018
     21 C         139.0352  143.1173  157.4354 C.3     1  UNL1        0.0014
     22 C         140.1544  144.1158  157.4194 C.3     1  UNL1        0.0155
     23 C         140.8258  144.5105  158.7015 C.3     1  UNL1        0.0525
     24 N         141.9449  145.5090  158.6855 N.3     1  UNL1       -0.3221
     25 C         140.3779  143.9065  159.9994 C.3     1  UNL1        0.0356
     26 C         140.8465  144.1001  161.4111 C.3     1  UNL1        0.0923
     27 H         142.1159  145.8128  157.7270 H       1  UNL1        0.1188
     28 H         142.7898  145.0788  159.0616 H       1  UNL1        0.1188
     29 C         141.4982  141.5224  170.3414 C.2     1  UNL1        0.0775
     30 O         142.2436  142.5679  171.1169 O.co2   1  UNL1       -0.5444
     31 O         140.8818  140.3562  171.0554 O.co2   1  UNL1       -0.5444
@<TRIPOS>UNITY_ATOM_ATTR
30 1
charge -1
@<TRIPOS>BOND
     1     2     1    1
     2     2     3    1
     3     3     4    1
     4     4     5    1
     5     5     6   ar
     6     6    17    1
     7    17    18    1
     8    19    18    1
     9    19    20    1
    10    20    21    1
    11    21    22    1
    12    22    23    1
    13    23    24    1
    14    23    25    1
    15    25    26    1
    16     6     7   ar
    17     7     8    1
    18     7     9   ar
    19     9    10   ar
    20    10    11   ar
    21    11    12   ar
    22    12    29    1
    23    29    30   ar
    24    29    31   ar
    25    12    13   ar
    26    13    14    2
    27    13    15   ar
    28    15    16   ar
    29    15     2    1
    30    16     5   ar
    31    26    17    1
    32    16    10   ar
    33    25    19    1
    34    24    27    1
    35    24    28    1
@<TRIPOS>MOLECULE
*****
 31 35 0 0 0
SMALL
GASTEIGER

@<TRIPOS>ATOM
      1 C         142.9057  137.6127  160.8909 C.3     1  UNL1        0.0285
      2 C         142.9180  138.8466  161.7437 C.3     1  UNL1        0.1321
      3 C         142.5346  138.7616  163.1914 C.3     1  UNL1        0.2279
      4 O         142.5469  139.9955  164.0442 O.3     1  UNL1       -0.4707
      5 C         142.9426  141.3144  163.4494 C.ar    1  UNL1        0.1697
      6 C         142.9549  142.5484  164.3022 C.ar    1  UNL1        0.1115
      7 C         143.3506  143.8673  163.7074 C.ar    1  UNL1        0.1564
      8 F         143.3629  145.1012  164.5602 F       1  UNL1       -0.2028
      9 C         143.7340  143.9523  162.2597 C.ar    1  UNL1        0.0326
     10 C         143.7217  142.7184  161.4068 C.ar    1  UNL1        0.0214
     11 C         144.1050  142.8034  159.9592 C.ar    1  UNL1        0.0075
     12 C         144.0927  141.5695  159.1063 C.ar    1  UNL1        0.0702
     13 C         143.6970  140.2506  159.7012 C.ar    1  UNL1        0.2620
     14 O         143.6847  139.0167  158.8483 O.2     1  UNL1       -0.2669
     15 N         143.3137  140.1655  161.1489 N.ar    1  UNL1       -0.2909
     16 C         143.3260  141.3995  162.0017 C.ar    1  UNL1        0.0980
     17 N         142.5716  142.4634  165.7499 N.pl3   1  UNL1       -0.3033
     18 C         141.1861  142.2507  166.2841 C.3     1  UNL1        0.0910
     19 C         141.2646  142.2320  167.7820 C.3     1  UNL1        0.0227
     20 C         140.2157  142.0579  168.8400 C.3     1  UNL1        0.0018
     21 C         140.6007  142.0848  170.2895 C.3     1  UNL1        0.0014
     22 C         142.0346  142.2858  170.6810 C.3     1  UNL1        0.0155
     23 C         143.0837  142.4600  169.6230 C.3     1  UNL1        0.0525
     24 N         144.5176  142.6610  170.0145 N.3     1  UNL1       -0.3221
     25 C         142.6987  142.4331  168.1735 C.3     1  UNL1        0.0356
     26 C         143.5064  142.5760  166.9176 C.3     1  UNL1        0.0923
     27 H         144.5969  142.6521  171.0314 H       1  UNL1        0.1188
     28 H         144.8455  143.5578  169.6558 H       1  UNL1        0.1188
     29 C         144.4761  141.6546  157.6586 C.2     1  UNL1        0.0775
     30 O         145.9066  141.8906  157.2742 O.co2   1  UNL1       -0.5444
     31 O         143.4289  141.5036  156.5953 O.co2   1  UNL1       -0.5444
@<TRIPOS>UNITY_ATOM_ATTR
30 1
charge -1
@<TRIPOS>BOND
     1     2     1    1
     2     2     3    1
     3     3     4    1
     4     4     5    1
     5     5     6   ar
     6     6    17    1
     7    17    18    1
     8    19    18    1
     9    19    20    1
    10    20    21    1
    11    21    22    1
    12    22    23    1
    13    23    24    1
    14    23    25    1
    15    25    26    1
    16     6     7   ar
    17     7     8    1
    18     7     9   ar
    19     9    10   ar
    20    10    11   ar
    21    11    12   ar
    22    12    29    1
    23    29    30   ar
    24    29    31   ar
    25    12    13   ar
    26    13    14    2
    27    13    15   ar
    28    15    16   ar
    29    15     2    1
    30    16     5   ar
    31    26    17    1
    32    16    10   ar
    33    25    19    1
    34    24    27    1
    35    24    28    1
