@<TRIPOS>MOLECULE
*****
 46 51 0 0 0
SMALL
GASTEIGER

@<TRIPOS>ATOM
      1 C         138.7270  139.2455  163.6062 C.ar    1  UNL1        0.1477
      2 C         138.3199  140.1399  164.7394 C.ar    1  UNL1        0.0846
      3 C         137.9623  141.5722  164.4732 C.ar    1  UNL1        0.0174
      4 C         138.0119  142.1100  163.0738 C.ar    1  UNL1       -0.0031
      5 C         138.4190  141.2154  161.9406 C.ar    1  UNL1       -0.0218
      6 C         138.7765  139.7833  162.2068 C.ar    1  UNL1        0.0091
      7 C         139.2056  138.7292  161.2296 C.3     1  UNL1        0.0292
      8 C         139.3831  138.8471  159.7447 C.3     1  UNL1        0.0062
      9 C         139.1753  140.0481  158.8705 C.3     1  UNL1        0.0166
     10 C         138.7388  141.4279  159.2651 C.3     1  UNL1        0.0619
     11 C         138.4022  141.9474  160.6314 C.3     1  UNL1        0.0421
     12 N         138.6236  142.4192  158.1453 N.3     1  UNL1       -0.2713
     13 C         137.4445  142.3711  157.2193 C.3     1  UNL1        0.0896
     14 C         137.3294  143.3626  156.0995 C.3     1  UNL1        0.0897
     15 N         138.3933  144.4020  155.9056 N.3     1  UNL1       -0.2682
     16 C         139.5725  144.4500  156.8316 C.3     1  UNL1        0.0897
     17 C         139.6876  143.4586  157.9514 C.3     1  UNL1        0.0896
     18 C         138.2782  145.3933  154.7859 C.3     1  UNL1        0.1043
     19 C         138.8639  146.7660  154.9362 C.3     1  UNL1        0.1544
     20 O         138.4470  147.6378  156.0834 O.3     1  UNL1       -0.3805
     21 H         137.5101  147.8705  155.9889 H       1  UNL1        0.2105
     22 C         140.4451  137.4653  164.3993 C.3     1  UNL1        0.2525
     23 O         139.0845  137.8132  163.8724 O.3     1  UNL1       -0.4705
     24 N         138.2703  139.6022  166.1388 N.pl3   1  UNL1       -0.2801
     25 H         137.5406  138.9991  166.4089 H       1  UNL1        0.1552
     26 C         139.3327  139.9835  167.1268 C.ar    1  UNL1        0.2219
     27 N         139.1550  139.6613  168.5810 N.ar    1  UNL1       -0.2110
     28 C         140.2173  140.0425  169.5689 C.ar    1  UNL1        0.1160
     29 C         141.4574  140.7460  169.1027 C.ar    1  UNL1        0.1082
     30 CL        142.5198  141.1273  170.0907 Cl      1  UNL1       -0.0777
     31 C         141.6351  141.0683  167.6485 C.ar    1  UNL1        0.1435
     32 N         140.5728  140.6870  166.6606 N.ar    1  UNL1       -0.1979
     33 N         142.8751  141.7718  167.1822 N.pl3   1  UNL1       -0.3181
     34 H         143.2755  142.4817  167.7345 H       1  UNL1        0.1482
     35 C         143.5051  141.3938  165.8746 C.3     1  UNL1        0.0832
     36 C         144.2023  142.3268  164.9294 C.3     1  UNL1        0.0984
     37 C         144.6767  141.5261  163.7531 C.3     1  UNL1        0.0323
     38 C         144.7201  140.1486  163.1609 C.2     1  UNL1       -0.0304
     39 C         144.0229  139.2156  164.1060 C.2     1  UNL1       -0.0294
     40 C         143.5485  140.0163  165.2824 C.3     1  UNL1        0.0404
     41 C         143.9527  141.4444  165.0642 C.3     1  UNL1        0.0109
     42 C         144.3920  143.8018  165.1261 C.2     1  UNL1        0.2208
     43 N         143.6244  144.7758  164.2822 N.am    1  UNL1       -0.3288
     44 O         145.3492  144.3028  166.1666 O.2     1  UNL1       -0.2753
     45 H         142.9961  144.4470  163.5992 H       1  UNL1        0.1449
     46 H         143.7488  145.7438  164.4112 H       1  UNL1        0.1449
@<TRIPOS>BOND
     1    22    23    1
     2    23     1    1
     3     1     2   ar
     4     2    24    1
     5    24    26    1
     6    26    27   ar
     7    27    28   ar
     8    28    29   ar
     9    29    30    1
    10    29    31   ar
    11    31    33    1
    12    35    33    1
    13    35    36    1
    14    36    42    1
    15    42    43   am
    16    42    44    2
    17    36    37    1
    18    37    38    1
    19    38    39    2
    20    40    39    1
    21    40    41    1
    22    31    32   ar
    23     2     3   ar
    24     3     4   ar
    25     4     5   ar
    26     5     6   ar
    27     6     7    1
    28     7     8    1
    29     8     9    1
    30     9    10    1
    31    10    12    1
    32    12    13    1
    33    13    14    1
    34    14    15    1
    35    15    18    1
    36    18    19    1
    37    19    20    1
    38    15    16    1
    39    16    17    1
    40    10    11    1
    41     6     1   ar
    42    17    12    1
    43    32    26   ar
    44    11     5    1
    45    40    35    1
    46    41    37    1
    47    24    25    1
    48    33    34    1
    49    43    45    1
    50    43    46    1
    51    20    21    1
@<TRIPOS>MOLECULE
*****
 46 51 0 0 0
SMALL
GASTEIGER

@<TRIPOS>ATOM
      1 C         143.5096  138.9298  163.3159 C.ar    1  UNL1        0.1477
      2 C         142.6928  138.2724  164.3886 C.ar    1  UNL1        0.0846
      3 C         141.3725  137.6469  164.0488 C.ar    1  UNL1        0.0174
      4 C         140.8689  137.6788  162.6362 C.ar    1  UNL1       -0.0031
      5 C         141.6857  138.3362  161.5634 C.ar    1  UNL1       -0.0218
      6 C         143.0059  138.9616  161.9033 C.ar    1  UNL1        0.0091
      7 C         143.9706  139.6627  160.9933 C.3     1  UNL1        0.0292
      8 C         143.8530  139.9115  159.5187 C.3     1  UNL1        0.0062
      9 C         142.7420  139.5206  158.5901 C.3     1  UNL1        0.0166
     10 C         141.4739  138.7844  158.9064 C.3     1  UNL1        0.0619
     11 C         141.0038  138.2573  160.2297 C.3     1  UNL1        0.0421
     12 N         140.5544  138.5435  157.7461 N.3     1  UNL1       -0.2713
     13 C         140.6762  137.2833  156.9416 C.3     1  UNL1        0.0896
     14 C         139.7566  137.0424  155.7812 C.3     1  UNL1        0.0897
     15 N         138.7153  138.0617  155.4253 N.3     1  UNL1       -0.2682
     16 C         138.5935  139.3219  156.2298 C.3     1  UNL1        0.0897
     17 C         139.5131  139.5628  157.3902 C.3     1  UNL1        0.0896
     18 C         137.7958  137.8208  154.2650 C.3     1  UNL1        0.1043
     19 C         136.6094  138.7134  154.0502 C.3     1  UNL1        0.1544
     20 O         135.4607  138.6789  155.0141 O.3     1  UNL1       -0.3805
     21 H         135.0240  137.8141  154.9658 H       1  UNL1        0.2105
     22 C         144.8778  140.9381  164.2346 C.3     1  UNL1        0.2525
     23 O         144.8299  139.5553  163.6557 O.3     1  UNL1       -0.4705
     24 N         143.1963  138.2405  165.8012 N.pl3   1  UNL1       -0.2801
     25 H         143.8837  137.5866  166.0642 H       1  UNL1        0.1552
     26 C         142.6524  139.2049  166.8132 C.ar    1  UNL1        0.2219
     27 N         143.0421  139.0773  168.2561 N.ar    1  UNL1       -0.2110
     28 C         142.4983  140.0416  169.2681 C.ar    1  UNL1        0.1160
     29 C         141.5646  141.1337  168.8372 C.ar    1  UNL1        0.1082
     30 CL        141.0207  142.0981  169.8492 Cl      1  UNL1       -0.0777
     31 C         141.1749  141.2615  167.3944 C.ar    1  UNL1        0.1435
     32 N         141.7188  140.2971  166.3824 N.ar    1  UNL1       -0.1979
     33 N         140.2412  142.3535  166.9634 N.pl3   1  UNL1       -0.3181
     34 H         140.2144  143.2028  167.4606 H       1  UNL1        0.1482
     35 C         139.3486  142.1516  165.7751 C.3     1  UNL1        0.0832
     36 C         138.7743  143.2339  164.9097 C.3     1  UNL1        0.0984
     37 C         137.9442  142.5832  163.8432 C.3     1  UNL1        0.0323
     38 C         137.4690  141.2635  163.3115 C.2     1  UNL1       -0.0304
     39 C         138.0433  140.1812  164.1769 C.2     1  UNL1       -0.0294
     40 C         138.8734  140.8320  165.2434 C.3     1  UNL1        0.0404
     41 C         138.8121  142.3165  165.0372 C.3     1  UNL1        0.0109
     42 C         138.9919  144.7082  165.0808 C.2     1  UNL1        0.2208
     43 N         139.9132  145.4430  164.1528 N.am    1  UNL1       -0.3288
     44 O         138.2881  145.4476  166.1799 O.2     1  UNL1       -0.2753
     45 H         140.3751  144.9577  163.4315 H       1  UNL1        0.1449
     46 H         140.0560  146.4106  164.2651 H       1  UNL1        0.1449
@<TRIPOS>BOND
     1    22    23    1
     2    23     1    1
     3     1     2   ar
     4     2    24    1
     5    24    26    1
     6    26    27   ar
     7    27    28   ar
     8    28    29   ar
     9    29    30    1
    10    29    31   ar
    11    31    33    1
    12    35    33    1
    13    35    36    1
    14    36    42    1
    15    42    43   am
    16    42    44    2
    17    36    37    1
    18    37    38    1
    19    38    39    2
    20    40    39    1
    21    40    41    1
    22    31    32   ar
    23     2     3   ar
    24     3     4   ar
    25     4     5   ar
    26     5     6   ar
    27     6     7    1
    28     7     8    1
    29     8     9    1
    30     9    10    1
    31    10    12    1
    32    12    13    1
    33    13    14    1
    34    14    15    1
    35    15    18    1
    36    18    19    1
    37    19    20    1
    38    15    16    1
    39    16    17    1
    40    10    11    1
    41     6     1   ar
    42    17    12    1
    43    32    26   ar
    44    11     5    1
    45    40    35    1
    46    41    37    1
    47    24    25    1
    48    33    34    1
    49    43    45    1
    50    43    46    1
    51    20    21    1
@<TRIPOS>MOLECULE
*****
 46 51 0 0 0
SMALL
GASTEIGER

@<TRIPOS>ATOM
      1 C         139.3328  141.2622  157.5516 C.ar    1  UNL1        0.1477
      2 C         140.1445  141.9566  158.6047 C.ar    1  UNL1        0.0846
      3 C         141.3652  141.2927  159.1697 C.ar    1  UNL1        0.0174
      4 C         141.7741  139.9345  158.6817 C.ar    1  UNL1       -0.0031
      5 C         140.9623  139.2402  157.6286 C.ar    1  UNL1       -0.0218
      6 C         139.7417  139.9041  157.0636 C.ar    1  UNL1        0.0091
      7 C         138.7987  139.3915  156.0156 C.3     1  UNL1        0.0292
      8 C         138.8436  138.0885  155.2739 C.3     1  UNL1        0.0062
      9 C         139.8424  136.9763  155.3969 C.3     1  UNL1        0.0166
     10 C         141.0431  136.8923  156.2921 C.3     1  UNL1        0.0619
     11 C         141.5415  137.8998  157.2853 C.3     1  UNL1        0.0421
     12 N         141.8524  135.6344  156.1791 N.3     1  UNL1       -0.2713
     13 C         141.4824  134.5930  155.1649 C.3     1  UNL1        0.0896
     14 C         142.2917  133.3351  155.0519 C.3     1  UNL1        0.0897
     15 N         143.4711  133.1186  155.9531 N.3     1  UNL1       -0.2682
     16 C         143.8412  134.1600  156.9673 C.3     1  UNL1        0.0897
     17 C         143.0318  135.4179  157.0803 C.3     1  UNL1        0.0896
     18 C         144.2804  131.8608  155.8401 C.3     1  UNL1        0.1043
     19 C         144.0255  130.7181  156.7779 C.3     1  UNL1        0.1544
     20 O         144.2712  130.8853  158.2481 O.3     1  UNL1       -0.3805
     21 H         145.2197  131.0152  158.4046 H       1  UNL1        0.2105
     22 C         138.2508  142.9511  155.9003 C.3     1  UNL1        0.2525
     23 O         138.1121  141.9261  156.9865 O.3     1  UNL1       -0.4705
     24 N         139.7357  143.3147  159.0928 N.pl3   1  UNL1       -0.2801
     25 H         139.8109  144.0951  158.4972 H       1  UNL1        0.1552
     26 C         139.2122  143.4839  160.4883 C.ar    1  UNL1        0.2219
     27 N         139.4738  144.7564  161.2383 N.ar    1  UNL1       -0.2110
     28 C         138.9503  144.9256  162.6337 C.ar    1  UNL1        0.1160
     29 C         138.1653  143.8223  163.2792 C.ar    1  UNL1        0.1082
     30 CL        137.6419  143.9915  164.6747 Cl      1  UNL1       -0.0777
     31 C         137.9038  142.5498  162.5293 C.ar    1  UNL1        0.1435
     32 N         138.4272  142.3806  161.1338 N.ar    1  UNL1       -0.1979
     33 N         137.1188  141.4466  163.1747 N.pl3   1  UNL1       -0.3181
     34 H         136.1425  141.5285  163.2712 H       1  UNL1        0.1482
     35 C         137.8213  140.2185  163.6729 C.3     1  UNL1        0.0832
     36 C         138.2727  139.0596  162.8344 C.3     1  UNL1        0.0984
     37 C         138.9261  138.0586  163.7405 C.3     1  UNL1        0.0323
     38 C         139.3005  137.7738  165.1648 C.2     1  UNL1       -0.0304
     39 C         138.8491  138.9327  166.0033 C.2     1  UNL1       -0.0294
     40 C         138.1956  139.9338  165.0973 C.3     1  UNL1        0.0404
     41 C         138.2433  139.3935  163.6987 C.3     1  UNL1        0.0109
     42 C         138.1010  138.9253  161.3503 C.2     1  UNL1        0.2208
     43 N         136.8470  139.4204  160.6926 N.am    1  UNL1       -0.3288
     44 O         139.1831  138.2959  160.5240 O.2     1  UNL1       -0.2753
     45 H         136.1368  139.8335  161.2349 H       1  UNL1        0.1449
     46 H         136.7343  139.3322  159.7185 H       1  UNL1        0.1449
@<TRIPOS>BOND
     1    22    23    1
     2    23     1    1
     3     1     2   ar
     4     2    24    1
     5    24    26    1
     6    26    27   ar
     7    27    28   ar
     8    28    29   ar
     9    29    30    1
    10    29    31   ar
    11    31    33    1
    12    35    33    1
    13    35    36    1
    14    36    42    1
    15    42    43   am
    16    42    44    2
    17    36    37    1
    18    37    38    1
    19    38    39    2
    20    40    39    1
    21    40    41    1
    22    31    32   ar
    23     2     3   ar
    24     3     4   ar
    25     4     5   ar
    26     5     6   ar
    27     6     7    1
    28     7     8    1
    29     8     9    1
    30     9    10    1
    31    10    12    1
    32    12    13    1
    33    13    14    1
    34    14    15    1
    35    15    18    1
    36    18    19    1
    37    19    20    1
    38    15    16    1
    39    16    17    1
    40    10    11    1
    41     6     1   ar
    42    17    12    1
    43    32    26   ar
    44    11     5    1
    45    40    35    1
    46    41    37    1
    47    24    25    1
    48    33    34    1
    49    43    45    1
    50    43    46    1
    51    20    21    1
@<TRIPOS>MOLECULE
*****
 46 51 0 0 0
SMALL
GASTEIGER

@<TRIPOS>ATOM
      1 C         138.2029  140.0682  163.4975 C.ar    1  UNL1        0.1477
      2 C         138.6282  139.1440  164.5998 C.ar    1  UNL1        0.0846
      3 C         139.4874  137.9538  164.2910 C.ar    1  UNL1        0.0174
      4 C         139.9212  137.6878  162.8799 C.ar    1  UNL1       -0.0031
      5 C         139.4959  138.6121  161.7777 C.ar    1  UNL1       -0.0218
      6 C         138.6368  139.8022  162.0865 C.ar    1  UNL1        0.0091
      7 C         138.1049  140.8415  161.1446 C.3     1  UNL1        0.0292
      8 C         138.3010  140.9471  159.6611 C.3     1  UNL1        0.0062
      9 C         139.0771  140.0398  158.7534 C.3     1  UNL1        0.0166
     10 C         139.8491  138.8025  159.1047 C.3     1  UNL1        0.0619
     11 C         140.0355  138.1672  160.4507 C.3     1  UNL1        0.0421
     12 N         140.5238  138.1090  157.9586 N.3     1  UNL1       -0.2713
     13 C         141.9959  137.8264  158.0147 C.3     1  UNL1        0.0896
     14 C         142.6707  137.1328  156.8685 C.3     1  UNL1        0.0897
     15 N         141.8734  136.7219  155.6662 N.3     1  UNL1       -0.2682
     16 C         140.4013  137.0045  155.6101 C.3     1  UNL1        0.0897
     17 C         139.7265  137.6980  156.7563 C.3     1  UNL1        0.0896
     18 C         142.5482  136.0283  154.5201 C.3     1  UNL1        0.1043
     19 C         142.4520  134.5376  154.3840 C.3     1  UNL1        0.1544
     20 O         141.5760  133.7543  155.3161 O.3     1  UNL1       -0.3805
     21 H         141.9295  133.8125  156.2175 H       1  UNL1        0.2105
     22 C         137.9611  142.5020  164.3739 C.3     1  UNL1        0.2525
     23 O         137.3438  141.2584  163.8063 O.3     1  UNL1       -0.4705
     24 N         138.1944  139.4099  166.0108 N.pl3   1  UNL1       -0.2801
     25 H         137.2543  139.2757  166.2704 H       1  UNL1        0.1552
     26 C         139.1931  139.8802  167.0264 C.ar    1  UNL1        0.2219
     27 N         138.9016  139.7306  168.4903 N.ar    1  UNL1       -0.2110
     28 C         139.9002  140.2009  169.5058 C.ar    1  UNL1        0.1160
     29 C         141.1904  140.8209  169.0577 C.ar    1  UNL1        0.1082
     30 CL        142.1891  141.2913  170.0733 Cl      1  UNL1       -0.0777
     31 C         141.4821  140.9706  167.5939 C.ar    1  UNL1        0.1435
     32 N         140.4834  140.5002  166.5783 N.ar    1  UNL1       -0.1979
     33 N         142.7723  141.5905  167.1457 N.pl3   1  UNL1       -0.3181
     34 H         143.2358  142.2366  167.7262 H       1  UNL1        0.1482
     35 C         143.3563  141.2263  165.8130 C.3     1  UNL1        0.0832
     36 C         144.0327  142.1666  164.8600 C.3     1  UNL1        0.0984
     37 C         144.4610  141.3792  163.6573 C.3     1  UNL1        0.0323
     38 C         144.4711  140.0106  163.0435 C.2     1  UNL1       -0.0304
     39 C         143.7947  139.0702  163.9965 C.2     1  UNL1       -0.0294
     40 C         143.3665  139.8576  165.1992 C.3     1  UNL1        0.0404
     41 C         143.7783  141.2847  164.9895 C.3     1  UNL1        0.0109
     42 C         144.2439  143.6365  165.0725 C.2     1  UNL1        0.2208
     43 N         145.1675  144.1128  166.1542 N.am    1  UNL1       -0.3288
     44 O         143.5315  144.6299  164.2032 O.2     1  UNL1       -0.2753
     45 H         145.6350  143.4608  166.7247 H       1  UNL1        0.1449
     46 H         145.3061  145.0775  166.2937 H       1  UNL1        0.1449
@<TRIPOS>BOND
     1    22    23    1
     2    23     1    1
     3     1     2   ar
     4     2    24    1
     5    24    26    1
     6    26    27   ar
     7    27    28   ar
     8    28    29   ar
     9    29    30    1
    10    29    31   ar
    11    31    33    1
    12    35    33    1
    13    35    36    1
    14    36    42    1
    15    42    43   am
    16    42    44    2
    17    36    37    1
    18    37    38    1
    19    38    39    2
    20    40    39    1
    21    40    41    1
    22    31    32   ar
    23     2     3   ar
    24     3     4   ar
    25     4     5   ar
    26     5     6   ar
    27     6     7    1
    28     7     8    1
    29     8     9    1
    30     9    10    1
    31    10    12    1
    32    12    13    1
    33    13    14    1
    34    14    15    1
    35    15    18    1
    36    18    19    1
    37    19    20    1
    38    15    16    1
    39    16    17    1
    40    10    11    1
    41     6     1   ar
    42    17    12    1
    43    32    26   ar
    44    11     5    1
    45    40    35    1
    46    41    37    1
    47    24    25    1
    48    33    34    1
    49    43    45    1
    50    43    46    1
    51    20    21    1
@<TRIPOS>MOLECULE
*****
 46 51 0 0 0
SMALL
GASTEIGER

@<TRIPOS>ATOM
      1 C         138.3038  140.0335  163.7412 C.ar    1  UNL1        0.1477
      2 C         138.6592  139.0476  164.8145 C.ar    1  UNL1        0.0846
      3 C         139.4575  137.8241  164.4744 C.ar    1  UNL1        0.0174
      4 C         139.9005  137.5864  163.0611 C.ar    1  UNL1       -0.0031
      5 C         139.5450  138.5723  161.9879 C.ar    1  UNL1       -0.0218
      6 C         138.7467  139.7958  162.3280 C.ar    1  UNL1        0.0091
      7 C         138.2884  140.8964  161.4177 C.3     1  UNL1        0.0292
      8 C         138.5154  141.0453  159.9424 C.3     1  UNL1        0.0062
      9 C         139.2565  140.1304  159.0132 C.3     1  UNL1        0.0166
     10 C         139.9539  138.8406  159.3296 C.3     1  UNL1        0.0619
     11 C         140.0823  138.1472  160.6535 C.3     1  UNL1        0.0421
     12 N         140.6095  138.1534  158.1687 N.3     1  UNL1       -0.2713
     13 C         139.7734  137.6183  157.0441 C.3     1  UNL1        0.0896
     14 C         140.4291  136.9310  155.8831 C.3     1  UNL1        0.0897
     15 N         141.9209  136.7789  155.8467 N.3     1  UNL1       -0.2682
     16 C         142.7571  137.3139  156.9713 C.3     1  UNL1        0.0897
     17 C         142.1014  138.0012  158.1323 C.3     1  UNL1        0.0896
     18 C         142.5766  136.0917  154.6858 C.3     1  UNL1        0.1043
     19 C         143.1089  134.6980  154.8424 C.3     1  UNL1        0.1544
     20 O         144.2417  134.4297  155.7882 O.3     1  UNL1       -0.3805
     21 H         145.0423  134.8742  155.4681 H       1  UNL1        0.2105
     22 C         138.1904  142.4671  164.6436 C.3     1  UNL1        0.2525
     23 O         137.5054  141.2570  164.0813 O.3     1  UNL1       -0.4705
     24 N         138.2163  139.2852  166.2277 N.pl3   1  UNL1       -0.2801
     25 H         137.2797  139.1226  166.4840 H       1  UNL1        0.1552
     26 C         139.2004  139.7705  167.2505 C.ar    1  UNL1        0.2219
     27 N         138.8732  139.6739  168.7113 N.ar    1  UNL1       -0.2110
     28 C         139.8572  140.1591  169.7340 C.ar    1  UNL1        0.1160
     29 C         141.1686  140.7410  169.2961 C.ar    1  UNL1        0.1082
     30 CL        142.1527  141.2263  170.3188 Cl      1  UNL1       -0.0777
     31 C         141.4959  140.8376  167.8354 C.ar    1  UNL1        0.1435
     32 N         140.5118  140.3524  166.8126 N.ar    1  UNL1       -0.1979
     33 N         142.8072  141.4195  167.3974 N.pl3   1  UNL1       -0.3181
     34 H         143.5377  141.5315  168.0478 H       1  UNL1        0.1482
     35 C         143.0055  141.8306  165.9686 C.3     1  UNL1        0.0832
     36 C         143.4933  140.9493  164.8571 C.3     1  UNL1        0.0984
     37 C         143.5401  141.7693  163.6019 C.3     1  UNL1        0.0323
     38 C         143.2854  143.1339  163.0337 C.2     1  UNL1       -0.0304
     39 C         142.7976  144.0152  164.1451 C.2     1  UNL1       -0.0294
     40 C         142.7508  143.1952  165.4003 C.3     1  UNL1        0.0404
     41 C         143.2097  141.8071  165.0646 C.3     1  UNL1        0.0109
     42 C         143.8685  139.5021  164.9794 C.2     1  UNL1        0.2208
     43 N         142.8276  138.4857  165.3445 N.am    1  UNL1       -0.3288
     44 O         145.2847  139.0714  164.7365 O.2     1  UNL1       -0.2753
     45 H         141.8981  138.7684  165.5039 H       1  UNL1        0.1449
     46 H         143.0738  137.5359  165.4247 H       1  UNL1        0.1449
@<TRIPOS>BOND
     1    22    23    1
     2    23     1    1
     3     1     2   ar
     4     2    24    1
     5    24    26    1
     6    26    27   ar
     7    27    28   ar
     8    28    29   ar
     9    29    30    1
    10    29    31   ar
    11    31    33    1
    12    35    33    1
    13    35    36    1
    14    36    42    1
    15    42    43   am
    16    42    44    2
    17    36    37    1
    18    37    38    1
    19    38    39    2
    20    40    39    1
    21    40    41    1
    22    31    32   ar
    23     2     3   ar
    24     3     4   ar
    25     4     5   ar
    26     5     6   ar
    27     6     7    1
    28     7     8    1
    29     8     9    1
    30     9    10    1
    31    10    12    1
    32    12    13    1
    33    13    14    1
    34    14    15    1
    35    15    18    1
    36    18    19    1
    37    19    20    1
    38    15    16    1
    39    16    17    1
    40    10    11    1
    41     6     1   ar
    42    17    12    1
    43    32    26   ar
    44    11     5    1
    45    40    35    1
    46    41    37    1
    47    24    25    1
    48    33    34    1
    49    43    45    1
    50    43    46    1
    51    20    21    1
@<TRIPOS>MOLECULE
*****
 46 51 0 0 0
SMALL
GASTEIGER

@<TRIPOS>ATOM
      1 C         138.9840  139.5082  160.0045 C.ar    1  UNL1        0.1477
      2 C         140.1342  138.6468  159.5743 C.ar    1  UNL1        0.0846
      3 C         141.2213  138.3051  160.5497 C.ar    1  UNL1        0.0174
      4 C         141.1583  138.8250  161.9554 C.ar    1  UNL1       -0.0031
      5 C         140.0081  139.6864  162.3855 C.ar    1  UNL1       -0.0218
      6 C         138.9211  140.0280  161.4101 C.ar    1  UNL1        0.0091
      7 C         137.6956  140.8645  161.6306 C.3     1  UNL1        0.0292
      8 C         137.2546  141.5660  162.8811 C.3     1  UNL1        0.0062
      9 C         137.9302  141.6042  164.2197 C.3     1  UNL1        0.0166
     10 C         139.2136  140.9504  164.6387 C.3     1  UNL1        0.0619
     11 C         140.1383  140.0969  163.8224 C.3     1  UNL1        0.0421
     12 N         139.6268  141.1805  166.0621 N.3     1  UNL1       -0.2713
     13 C         139.4497  140.0927  167.0797 C.3     1  UNL1        0.0896
     14 C         139.8630  140.3229  168.5033 C.3     1  UNL1        0.0897
     15 N         140.4533  141.6408  168.9092 N.3     1  UNL1       -0.2682
     16 C         140.6304  142.7286  167.8916 C.3     1  UNL1        0.0897
     17 C         140.2171  142.4984  166.4680 C.3     1  UNL1        0.0896
     18 C         140.8665  141.8709  170.3326 C.3     1  UNL1        0.1043
     19 C         141.1648  140.7028  171.2252 C.3     1  UNL1        0.1544
     20 O         142.3465  140.7466  172.1479 O.3     1  UNL1       -0.3805
     21 H         143.1639  140.7648  171.6259 H       1  UNL1        0.2105
     22 C         138.0535  141.0277  158.1137 C.3     1  UNL1        0.2525
     23 O         137.8969  139.8499  159.0291 O.3     1  UNL1       -0.4705
     24 N         140.1972  138.1269  158.1687 N.pl3   1  UNL1       -0.2801
     25 H         139.4262  137.6498  157.7852 H       1  UNL1        0.1552
     26 C         141.4352  138.3340  157.3473 C.ar    1  UNL1        0.2219
     27 N         141.9855  139.7163  157.1555 N.ar    1  UNL1       -0.2110
     28 C         143.2234  139.9234  156.3342 C.ar    1  UNL1        0.1160
     29 C         143.9111  138.7483  155.7046 C.ar    1  UNL1        0.1082
     30 CL        145.1490  138.9554  154.8833 Cl      1  UNL1       -0.0777
     31 C         143.3608  137.3661  155.8964 C.ar    1  UNL1        0.1435
     32 N         142.1229  137.1590  156.7177 N.ar    1  UNL1       -0.1979
     33 N         144.0484  136.1910  155.2668 N.pl3   1  UNL1       -0.3181
     34 H         144.9957  136.2563  155.0069 H       1  UNL1        0.1482
     35 C         143.2928  134.9165  155.0333 C.3     1  UNL1        0.0832
     36 C         143.2862  133.7176  155.9347 C.3     1  UNL1        0.0984
     37 C         142.4003  132.6772  155.3159 C.3     1  UNL1        0.0323
     38 C         141.5185  132.3779  154.1399 C.2     1  UNL1       -0.0304
     39 C         141.5251  133.5768  153.2386 C.2     1  UNL1       -0.0294
     40 C         142.4110  134.6172  153.8574 C.3     1  UNL1        0.0404
     41 C         142.9519  134.0612  155.1413 C.3     1  UNL1        0.0109
     42 C         144.0342  133.5826  157.2279 C.2     1  UNL1        0.2208
     43 N         145.2467  132.7029  157.3048 N.am    1  UNL1       -0.3288
     44 O         143.5697  134.3275  158.4443 O.2     1  UNL1       -0.2753
     45 H         145.5516  132.2141  156.5064 H       1  UNL1        0.1449
     46 H         145.7376  132.6143  158.1535 H       1  UNL1        0.1449
@<TRIPOS>BOND
     1    22    23    1
     2    23     1    1
     3     1     2   ar
     4     2    24    1
     5    24    26    1
     6    26    27   ar
     7    27    28   ar
     8    28    29   ar
     9    29    30    1
    10    29    31   ar
    11    31    33    1
    12    35    33    1
    13    35    36    1
    14    36    42    1
    15    42    43   am
    16    42    44    2
    17    36    37    1
    18    37    38    1
    19    38    39    2
    20    40    39    1
    21    40    41    1
    22    31    32   ar
    23     2     3   ar
    24     3     4   ar
    25     4     5   ar
    26     5     6   ar
    27     6     7    1
    28     7     8    1
    29     8     9    1
    30     9    10    1
    31    10    12    1
    32    12    13    1
    33    13    14    1
    34    14    15    1
    35    15    18    1
    36    18    19    1
    37    19    20    1
    38    15    16    1
    39    16    17    1
    40    10    11    1
    41     6     1   ar
    42    17    12    1
    43    32    26   ar
    44    11     5    1
    45    40    35    1
    46    41    37    1
    47    24    25    1
    48    33    34    1
    49    43    45    1
    50    43    46    1
    51    20    21    1
@<TRIPOS>MOLECULE
*****
 46 51 0 0 0
SMALL
GASTEIGER

@<TRIPOS>ATOM
      1 C         139.1810  138.8426  164.0427 C.ar    1  UNL1        0.1477
      2 C         138.6381  139.7556  165.1018 C.ar    1  UNL1        0.0846
      3 C         137.9169  141.0116  164.7116 C.ar    1  UNL1        0.0174
      4 C         137.7387  141.3547  163.2622 C.ar    1  UNL1       -0.0031
      5 C         138.2817  140.4417  162.2031 C.ar    1  UNL1       -0.0218
      6 C         139.0028  139.1857  162.5934 C.ar    1  UNL1        0.0091
      7 C         139.6171  138.1452  161.7044 C.3     1  UNL1        0.0292
      8 C         139.6619  138.1040  160.2056 C.3     1  UNL1        0.0062
      9 C         139.1036  139.0928  159.2257 C.3     1  UNL1        0.0166
     10 C         138.3625  140.3673  159.5024 C.3     1  UNL1        0.0619
     11 C         137.9967  140.9676  160.8275 C.3     1  UNL1        0.0421
     12 N         137.9300  141.1441  158.2944 N.3     1  UNL1       -0.2713
     13 C         136.8761  140.5884  157.3831 C.3     1  UNL1        0.0896
     14 C         136.4437  141.3653  156.1749 C.3     1  UNL1        0.0897
     15 N         137.0650  142.6979  155.8782 N.3     1  UNL1       -0.2682
     16 C         138.1189  143.2537  156.7896 C.3     1  UNL1        0.0897
     17 C         138.5514  142.4767  157.9977 C.3     1  UNL1        0.0896
     18 C         136.6325  143.4747  154.6702 C.3     1  UNL1        0.1043
     19 C         137.4824  144.5998  154.1582 C.3     1  UNL1        0.1544
     20 O         137.2863  145.9892  154.6884 O.3     1  UNL1       -0.3805
     21 H         136.4109  146.3147  154.4264 H       1  UNL1        0.2105
     22 C         141.3742  137.6246  164.7181 C.3     1  UNL1        0.2525
     23 O         139.9021  137.5865  164.4329 O.3     1  UNL1       -0.4705
     24 N         138.8162  139.4126  166.5511 N.pl3   1  UNL1       -0.2801
     25 H         138.1747  138.8141  166.9978 H       1  UNL1        0.1552
     26 C         139.9718  139.9814  167.3199 C.ar    1  UNL1        0.2219
     27 N         140.0410  139.8076  168.8082 N.ar    1  UNL1       -0.2110
     28 C         141.1965  140.3764  169.5769 C.ar    1  UNL1        0.1160
     29 C         142.2831  141.1192  168.8573 C.ar    1  UNL1        0.1082
     30 CL        143.4387  141.6881  169.6261 Cl      1  UNL1       -0.0777
     31 C         142.2140  141.2932  167.3690 C.ar    1  UNL1        0.1435
     32 N         141.0584  140.7243  166.6003 N.ar    1  UNL1       -0.1979
     33 N         143.3004  142.0359  166.6494 N.pl3   1  UNL1       -0.3181
     34 H         144.1923  142.1208  167.0576 H       1  UNL1        0.1482
     35 C         143.0281  142.6493  165.3080 C.3     1  UNL1        0.0832
     36 C         143.7402  142.3237  164.0286 C.3     1  UNL1        0.0984
     37 C         143.1480  143.1692  162.9403 C.3     1  UNL1        0.0323
     38 C         142.1158  144.2161  162.6428 C.2     1  UNL1       -0.0304
     39 C         141.4037  144.5417  163.9221 C.2     1  UNL1       -0.0294
     40 C         141.9958  143.6962  165.0105 C.3     1  UNL1        0.0404
     41 C         143.0739  142.8479  164.4036 C.3     1  UNL1        0.0109
     42 C         144.8497  141.3273  163.8660 C.2     1  UNL1        0.2208
     43 N         146.2591  141.8003  163.6665 N.am    1  UNL1       -0.3288
     44 O         144.5497  139.8581  163.9030 O.2     1  UNL1       -0.2753
     45 H         146.4560  142.7646  163.6422 H       1  UNL1        0.1449
     46 H         146.9873  141.1464  163.5597 H       1  UNL1        0.1449
@<TRIPOS>BOND
     1    22    23    1
     2    23     1    1
     3     1     2   ar
     4     2    24    1
     5    24    26    1
     6    26    27   ar
     7    27    28   ar
     8    28    29   ar
     9    29    30    1
    10    29    31   ar
    11    31    33    1
    12    35    33    1
    13    35    36    1
    14    36    42    1
    15    42    43   am
    16    42    44    2
    17    36    37    1
    18    37    38    1
    19    38    39    2
    20    40    39    1
    21    40    41    1
    22    31    32   ar
    23     2     3   ar
    24     3     4   ar
    25     4     5   ar
    26     5     6   ar
    27     6     7    1
    28     7     8    1
    29     8     9    1
    30     9    10    1
    31    10    12    1
    32    12    13    1
    33    13    14    1
    34    14    15    1
    35    15    18    1
    36    18    19    1
    37    19    20    1
    38    15    16    1
    39    16    17    1
    40    10    11    1
    41     6     1   ar
    42    17    12    1
    43    32    26   ar
    44    11     5    1
    45    40    35    1
    46    41    37    1
    47    24    25    1
    48    33    34    1
    49    43    45    1
    50    43    46    1
    51    20    21    1
@<TRIPOS>MOLECULE
*****
 46 51 0 0 0
SMALL
GASTEIGER

@<TRIPOS>ATOM
      1 C         142.8852  140.8178  157.8260 C.ar    1  UNL1        0.1477
      2 C         142.0457  141.0697  159.0434 C.ar    1  UNL1        0.0846
      3 C         141.4156  139.9192  159.7711 C.ar    1  UNL1        0.0174
      4 C         141.6249  138.5169  159.2813 C.ar    1  UNL1       -0.0031
      5 C         142.4643  138.2651  158.0639 C.ar    1  UNL1       -0.0218
      6 C         143.0944  139.4155  157.3364 C.ar    1  UNL1        0.0091
      7 C         143.9607  139.3862  156.1121 C.3     1  UNL1        0.0292
      8 C         144.4108  138.1990  155.3131 C.3     1  UNL1        0.0062
      9 C         144.1057  136.7483  155.5411 C.3     1  UNL1        0.0166
     10 C         143.2753  136.1261  156.6243 C.3     1  UNL1        0.0619
     11 C         142.5448  136.8011  157.7471 C.3     1  UNL1        0.0421
     12 N         143.1602  134.6313  156.5787 N.3     1  UNL1       -0.2713
     13 C         142.0873  133.9865  155.7520 C.3     1  UNL1        0.0896
     14 C         141.9722  132.4916  155.7064 C.3     1  UNL1        0.0897
     15 N         142.9299  131.6414  156.4875 N.3     1  UNL1       -0.2682
     16 C         144.0027  132.2861  157.3142 C.3     1  UNL1        0.0897
     17 C         144.1178  133.7811  157.3598 C.3     1  UNL1        0.0896
     18 C         142.8147  130.1466  156.4419 C.3     1  UNL1        0.1043
     19 C         143.5875  129.3048  157.4137 C.3     1  UNL1        0.1544
     20 O         143.2235  129.3140  158.8688 O.3     1  UNL1       -0.3805
     21 H         143.3984  130.1928  159.2403 H       1  UNL1        0.2105
     22 C         144.8494  142.4938  157.5386 C.3     1  UNL1        0.2525
     23 O         143.5153  141.9682  157.0984 O.3     1  UNL1       -0.4705
     24 N         141.8364  142.4719  159.5331 N.pl3   1  UNL1       -0.2801
     25 H         142.0023  143.2334  158.9316 H       1  UNL1        0.1552
     26 C         141.3743  142.7139  160.9395 C.ar    1  UNL1        0.2219
     27 N         139.9603  143.1406  161.2015 N.ar    1  UNL1       -0.2110
     28 C         139.4982  143.3826  162.6078 C.ar    1  UNL1        0.1160
     29 C         140.4502  143.1980  163.7523 C.ar    1  UNL1        0.1082
     30 CL        139.9881  143.4400  165.1587 Cl      1  UNL1       -0.0777
     31 C         141.8642  142.7714  163.4904 C.ar    1  UNL1        0.1435
     32 N         142.3263  142.5293  162.0840 N.ar    1  UNL1       -0.1979
     33 N         142.8161  142.5868  164.6348 N.pl3   1  UNL1       -0.3181
     34 H         143.1935  143.3723  165.0928 H       1  UNL1        0.1482
     35 C         143.1932  141.2054  165.0814 C.3     1  UNL1        0.0832
     36 C         144.1865  140.3027  164.4119 C.3     1  UNL1        0.0984
     37 C         144.2503  139.0235  165.1927 C.3     1  UNL1        0.0323
     38 C         143.7002  138.3022  166.3873 C.2     1  UNL1       -0.0304
     39 C         142.7068  139.2050  167.0569 C.2     1  UNL1       -0.0294
     40 C         142.6430  140.4842  166.2761 C.3     1  UNL1        0.0404
     41 C         143.5970  140.3719  165.1239 C.3     1  UNL1        0.0109
     42 C         144.9773  140.6229  163.1780 C.2     1  UNL1        0.2208
     43 N         144.5651  140.0515  161.8538 N.am    1  UNL1       -0.3288
     44 O         146.1802  141.5144  163.2686 O.2     1  UNL1       -0.2753
     45 H         143.7756  139.4664  161.7944 H       1  UNL1        0.1449
     46 H         145.0841  140.2617  161.0440 H       1  UNL1        0.1449
@<TRIPOS>BOND
     1    22    23    1
     2    23     1    1
     3     1     2   ar
     4     2    24    1
     5    24    26    1
     6    26    27   ar
     7    27    28   ar
     8    28    29   ar
     9    29    30    1
    10    29    31   ar
    11    31    33    1
    12    35    33    1
    13    35    36    1
    14    36    42    1
    15    42    43   am
    16    42    44    2
    17    36    37    1
    18    37    38    1
    19    38    39    2
    20    40    39    1
    21    40    41    1
    22    31    32   ar
    23     2     3   ar
    24     3     4   ar
    25     4     5   ar
    26     5     6   ar
    27     6     7    1
    28     7     8    1
    29     8     9    1
    30     9    10    1
    31    10    12    1
    32    12    13    1
    33    13    14    1
    34    14    15    1
    35    15    18    1
    36    18    19    1
    37    19    20    1
    38    15    16    1
    39    16    17    1
    40    10    11    1
    41     6     1   ar
    42    17    12    1
    43    32    26   ar
    44    11     5    1
    45    40    35    1
    46    41    37    1
    47    24    25    1
    48    33    34    1
    49    43    45    1
    50    43    46    1
    51    20    21    1
@<TRIPOS>MOLECULE
*****
 46 51 0 0 0
SMALL
GASTEIGER

@<TRIPOS>ATOM
      1 C         138.9740  140.4565  157.2471 C.ar    1  UNL1        0.1477
      2 C         139.3869  141.0398  158.5660 C.ar    1  UNL1        0.0846
      3 C         140.4370  140.3578  159.3919 C.ar    1  UNL1        0.0174
      4 C         141.0742  139.0924  158.8990 C.ar    1  UNL1       -0.0031
      5 C         140.6613  138.5092  157.5801 C.ar    1  UNL1       -0.0218
      6 C         139.6113  139.1912  156.7543 C.ar    1  UNL1        0.0091
      7 C         139.0578  138.7820  155.4215 C.3     1  UNL1        0.0292
      8 C         139.4178  137.5896  154.5855 C.3     1  UNL1        0.0062
      9 C         140.4200  136.5122  154.8758 C.3     1  UNL1        0.0166
     10 C         141.3099  136.3607  156.0738 C.3     1  UNL1        0.0619
     11 C         141.4173  137.2495  157.2773 C.3     1  UNL1        0.0421
     12 N         142.2116  135.1621  156.0674 N.3     1  UNL1       -0.2713
     13 C         142.1567  134.1883  154.9277 C.3     1  UNL1        0.0896
     14 C         143.0585  132.9895  154.9213 C.3     1  UNL1        0.0897
     15 N         144.0152  132.7647  156.0545 N.3     1  UNL1       -0.2682
     16 C         144.0702  133.7385  157.1941 C.3     1  UNL1        0.0897
     17 C         143.1684  134.9372  157.2005 C.3     1  UNL1        0.0896
     18 C         144.9169  131.5660  156.0481 C.3     1  UNL1        0.1043
     19 C         144.4251  130.2604  155.4970 C.3     1  UNL1        0.1544
     20 O         143.1993  129.6169  156.0742 O.3     1  UNL1       -0.3805
     21 H         143.3748  129.3507  156.9902 H       1  UNL1        0.2105
     22 C         136.4728  140.9584  156.7553 C.3     1  UNL1        0.2525
     23 O         137.9239  141.1385  156.4211 O.3     1  UNL1       -0.4705
     24 N         138.7497  142.3051  159.0589 N.pl3   1  UNL1       -0.2801
     25 H         138.4567  142.9913  158.4167 H       1  UNL1        0.1552
     26 C         138.5589  142.5248  160.5304 C.ar    1  UNL1        0.2219
     27 N         138.7058  143.9011  161.1086 N.ar    1  UNL1       -0.2110
     28 C         138.5150  144.1208  162.5800 C.ar    1  UNL1        0.1160
     29 C         138.1772  142.9641  163.4735 C.ar    1  UNL1        0.1082
     30 CL        137.9864  143.1838  164.9450 Cl      1  UNL1       -0.0777
     31 C         138.0303  141.5878  162.8953 C.ar    1  UNL1        0.1435
     32 N         138.2211  141.3681  161.4238 N.ar    1  UNL1       -0.1979
     33 N         137.6925  140.4311  163.7886 N.pl3   1  UNL1       -0.3181
     34 H         136.8294  140.4103  164.2618 H       1  UNL1        0.1482
     35 C         138.6696  139.3063  163.9610 C.3     1  UNL1        0.0832
     36 C         138.9932  138.6091  165.2491 C.3     1  UNL1        0.0984
     37 C         140.0184  137.5530  164.9598 C.3     1  UNL1        0.0323
     38 C         140.8435  136.9277  163.8743 C.2     1  UNL1       -0.0304
     39 C         140.5199  137.6249  162.5863 C.2     1  UNL1       -0.0294
     40 C         139.4948  138.6810  162.8756 C.3     1  UNL1        0.0404
     41 C         139.1848  138.6365  164.3426 C.3     1  UNL1        0.0109
     42 C         138.3965  138.9144  166.5911 C.2     1  UNL1        0.2208
     43 N         139.0672  139.8976  167.5040 N.am    1  UNL1       -0.3288
     44 O         137.1290  138.2365  167.0200 O.2     1  UNL1       -0.2753
     45 H         139.8991  140.3425  167.2225 H       1  UNL1        0.1449
     46 H         138.6755  140.0980  168.3848 H       1  UNL1        0.1449
@<TRIPOS>BOND
     1    22    23    1
     2    23     1    1
     3     1     2   ar
     4     2    24    1
     5    24    26    1
     6    26    27   ar
     7    27    28   ar
     8    28    29   ar
     9    29    30    1
    10    29    31   ar
    11    31    33    1
    12    35    33    1
    13    35    36    1
    14    36    42    1
    15    42    43   am
    16    42    44    2
    17    36    37    1
    18    37    38    1
    19    38    39    2
    20    40    39    1
    21    40    41    1
    22    31    32   ar
    23     2     3   ar
    24     3     4   ar
    25     4     5   ar
    26     5     6   ar
    27     6     7    1
    28     7     8    1
    29     8     9    1
    30     9    10    1
    31    10    12    1
    32    12    13    1
    33    13    14    1
    34    14    15    1
    35    15    18    1
    36    18    19    1
    37    19    20    1
    38    15    16    1
    39    16    17    1
    40    10    11    1
    41     6     1   ar
    42    17    12    1
    43    32    26   ar
    44    11     5    1
    45    40    35    1
    46    41    37    1
    47    24    25    1
    48    33    34    1
    49    43    45    1
    50    43    46    1
    51    20    21    1
