@<TRIPOS>MOLECULE
*****
 39 42 0 0 0
SMALL
GASTEIGER

@<TRIPOS>ATOM
      1 S         139.0088  140.1894  164.9552 S.O2    1  UNL1        0.0134
      2 O         137.6813  140.3813  165.1087 O.2     1  UNL1       -0.1683
      3 O         140.4504  139.9674  164.6049 O.2     1  UNL1       -0.1683
      4 C         139.3712  140.2475  166.4096 C.3     1  UNL1        0.1845
      5 C         139.9278  141.5947  166.0553 C.3     1  UNL1        0.0313
      6 C         140.5020  142.2013  167.3013 C.3     1  UNL1        0.0024
      7 C         140.3003  141.2290  168.4257 C.3     1  UNL1        0.0048
      8 C         140.0298  140.1624  169.4451 C.3     1  UNL1        0.0172
      9 C         140.4527  140.3626  170.8702 C.3     1  UNL1        0.0686
     10 N         141.1461  141.6292  171.2759 N.3     1  UNL1       -0.2975
     11 C         141.4167  142.6958  170.2566 C.3     1  UNL1        0.0686
     12 C         140.9938  142.4957  168.8314 C.3     1  UNL1        0.0172
     13 C         139.6014  140.0216  167.8746 C.3     1  UNL1        0.0314
     14 H         142.0490  141.3587  171.6658 H       1  UNL1        0.1232
     15 C         138.7389  138.8883  166.4599 C.2     1  UNL1        0.2644
     16 O         139.1402  137.7807  165.8006 O.2     1  UNL1       -0.2713
     17 N         137.5267  138.6560  167.3123 N.am    1  UNL1       -0.1956
     18 O         136.8944  137.2967  167.3625 O.3     1  UNL1       -0.2951
     19 H         137.1460  139.3957  167.8387 H       1  UNL1        0.1823
     20 H         137.3890  136.6887  166.7910 H       1  UNL1        0.2414
     21 C         137.9215  140.0148  160.5921 C.ar    1  UNL1        0.1391
     22 C         138.0684  138.7468  161.3798 C.ar    1  UNL1        0.0382
     23 C         138.4308  138.8050  162.8341 C.ar    1  UNL1        0.0215
     24 C         138.6464  140.1312  163.5009 C.ar    1  UNL1        0.1063
     25 C         138.4996  141.3993  162.7132 C.ar    1  UNL1        0.0215
     26 C         138.1371  141.3411  161.2589 C.ar    1  UNL1        0.0382
     27 O         137.5591  139.9566  159.1377 O.3     1  UNL1       -0.4706
     28 C         138.5734  140.3273  158.0966 C.3     1  UNL1        0.2320
     29 C         141.8464  137.4352  157.0135 C.ar    1  UNL1        0.0533
     30 C         140.6301  137.5516  156.1433 C.ar    1  UNL1        0.0043
     31 C         139.5391  138.5157  156.5044 C.ar    1  UNL1       -0.0005
     32 C         139.6644  139.3633  157.7355 C.ar    1  UNL1        0.0212
     33 C         140.8807  139.2469  158.6057 C.ar    1  UNL1       -0.0005
     34 C         141.9716  138.2828  158.2447 C.ar    1  UNL1        0.0043
     35 C         143.8550  134.0421  156.5635 C.3     1  UNL1        0.1109
     36 N         142.7641  135.0062  156.9246 N.am    1  UNL1       -0.2992
     37 C         142.9373  136.4712  156.6525 C.2     1  UNL1        0.2459
     38 O         144.2016  136.9720  156.0194 O.2     1  UNL1       -0.2701
     39 H         141.9343  134.6774  157.3401 H       1  UNL1        0.1498
@<TRIPOS>BOND
     1    35    36    1
     2    36    37   am
     3    37    38    2
     4    37    29    1
     5    29    30   ar
     6    30    31   ar
     7    31    32   ar
     8    32    28    1
     9    28    27    1
    10    27    21    1
    11    21    22   ar
    12    22    23   ar
    13    23    24   ar
    14    24     1    1
    15     1     2    2
    16     1     3    2
    17     1     4    1
    18     4    15    1
    19    15    16    2
    20    15    17   am
    21    17    18    1
    22     4     5    1
    23     5     6    1
    24     6     7    1
    25     7     8    1
    26     8     9    1
    27     9    10    1
    28    10    11    1
    29    11    12    1
    30     7    13    1
    31    24    25   ar
    32    25    26   ar
    33    32    33   ar
    34    33    34   ar
    35    34    29   ar
    36    26    21   ar
    37    13     4    1
    38    12     7    1
    39    36    39    1
    40    17    19    1
    41    18    20    1
    42    10    14    1
@<TRIPOS>MOLECULE
*****
 39 42 0 0 0
SMALL
GASTEIGER

@<TRIPOS>ATOM
      1 S         141.3195  139.2405  164.3701 S.O2    1  UNL1        0.0134
      2 O         141.2835  140.5062  163.9018 O.2     1  UNL1       -0.1683
      3 O         141.4223  137.7867  164.7251 O.2     1  UNL1       -0.1683
      4 C         140.8117  139.5413  165.7491 C.3     1  UNL1        0.1845
      5 C         142.2585  139.4429  166.1329 C.3     1  UNL1        0.0313
      6 C         142.3646  139.6902  167.6085 C.3     1  UNL1        0.0024
      7 C         140.9833  139.9416  168.1369 C.3     1  UNL1        0.0048
      8 C         139.5511  140.1729  168.5180 C.3     1  UNL1        0.0172
      9 C         139.1926  140.4650  169.9449 C.3     1  UNL1        0.0686
     10 N         140.2663  140.5258  170.9907 N.3     1  UNL1       -0.2975
     11 C         141.6984  140.2945  170.6095 C.3     1  UNL1        0.0686
     12 C         142.0570  140.0024  169.1826 C.3     1  UNL1        0.0172
     13 C         140.0236  139.8496  166.9877 C.3     1  UNL1        0.0314
     14 H         140.0320  139.8254  171.6942 H       1  UNL1        0.1232
     15 C         139.4712  139.5769  165.0772 C.2     1  UNL1        0.2644
     16 O         138.8104  138.5363  164.5268 O.2     1  UNL1       -0.2713
     17 N         138.7220  140.8717  164.9660 N.am    1  UNL1       -0.1956
     18 O         137.3814  140.9072  164.2940 O.3     1  UNL1       -0.2951
     19 H         139.1103  141.6982  165.3339 H       1  UNL1        0.1823
     20 H         137.1479  140.0158  163.9910 H       1  UNL1        0.2414
     21 C         142.8430  138.3382  160.2332 C.ar    1  UNL1        0.1391
     22 C         141.4524  138.8680  160.4213 C.ar    1  UNL1        0.0382
     23 C         140.9446  139.1688  161.8003 C.ar    1  UNL1        0.0215
     24 C         141.8274  138.9398  162.9911 C.ar    1  UNL1        0.1063
     25 C         143.2180  138.4099  162.8030 C.ar    1  UNL1        0.0215
     26 C         143.7258  138.1091  161.4241 C.ar    1  UNL1        0.0382
     27 O         143.3508  138.0374  158.8542 O.3     1  UNL1       -0.4706
     28 C         142.4580  137.3595  157.8574 C.3     1  UNL1        0.2320
     29 C         143.7093  133.4532  156.0070 C.ar    1  UNL1        0.0533
     30 C         143.1786  134.5572  155.1413 C.ar    1  UNL1        0.0043
     31 C         142.7615  135.8593  155.7581 C.ar    1  UNL1       -0.0005
     32 C         142.8751  136.0574  157.2406 C.ar    1  UNL1        0.0212
     33 C         143.4058  134.9533  158.1063 C.ar    1  UNL1       -0.0005
     34 C         143.8229  133.6512  157.4895 C.ar    1  UNL1        0.0043
     35 C         143.8347  130.3347  153.5555 C.3     1  UNL1        0.1109
     36 N         143.4175  131.6368  154.1723 N.am    1  UNL1       -0.2992
     37 C         144.1264  132.1510  155.3902 C.2     1  UNL1        0.2459
     38 O         145.2524  131.3631  155.9912 O.2     1  UNL1       -0.2701
     39 H         142.6785  132.1540  153.7778 H       1  UNL1        0.1498
@<TRIPOS>BOND
     1    35    36    1
     2    36    37   am
     3    37    38    2
     4    37    29    1
     5    29    30   ar
     6    30    31   ar
     7    31    32   ar
     8    32    28    1
     9    28    27    1
    10    27    21    1
    11    21    22   ar
    12    22    23   ar
    13    23    24   ar
    14    24     1    1
    15     1     2    2
    16     1     3    2
    17     1     4    1
    18     4    15    1
    19    15    16    2
    20    15    17   am
    21    17    18    1
    22     4     5    1
    23     5     6    1
    24     6     7    1
    25     7     8    1
    26     8     9    1
    27     9    10    1
    28    10    11    1
    29    11    12    1
    30     7    13    1
    31    24    25   ar
    32    25    26   ar
    33    32    33   ar
    34    33    34   ar
    35    34    29   ar
    36    26    21   ar
    37    13     4    1
    38    12     7    1
    39    36    39    1
    40    17    19    1
    41    18    20    1
    42    10    14    1
@<TRIPOS>MOLECULE
*****
 39 42 0 0 0
SMALL
GASTEIGER

@<TRIPOS>ATOM
      1 S         139.0546  140.1956  164.9570 S.O2    1  UNL1        0.0134
      2 O         137.7264  140.3934  165.0957 O.2     1  UNL1       -0.1683
      3 O         140.4990  139.9674  164.6227 O.2     1  UNL1       -0.1683
      4 C         139.4009  140.2510  166.4154 C.3     1  UNL1        0.1845
      5 C         139.9693  141.5950  166.0682 C.3     1  UNL1        0.0313
      6 C         140.5329  142.1976  167.3209 C.3     1  UNL1        0.0024
      7 C         140.3129  141.2260  168.4424 C.3     1  UNL1        0.0048
      8 C         140.0247  140.1605  169.4580 C.3     1  UNL1        0.0172
      9 C         140.4326  140.3574  170.8880 C.3     1  UNL1        0.0686
     10 N         141.1288  141.6198  171.3023 N.3     1  UNL1       -0.2975
     11 C         141.4171  142.6853  170.2866 C.3     1  UNL1        0.0686
     12 C         141.0091  142.4884  168.8567 C.3     1  UNL1        0.0172
     13 C         139.6133  140.0229  167.8828 C.3     1  UNL1        0.0314
     14 H         142.0257  141.3438  171.7021 H       1  UNL1        0.1232
     15 C         138.7602  138.8954  166.4578 C.2     1  UNL1        0.2644
     16 O         139.1540  137.7894  165.7913 O.2     1  UNL1       -0.2713
     17 N         137.5472  138.6654  167.3098 N.am    1  UNL1       -0.1956
     18 O         136.9065  137.3098  167.3521 O.3     1  UNL1       -0.2951
     19 H         137.1716  139.4042  167.8411 H       1  UNL1        0.1823
     20 H         137.3968  136.7023  166.7764 H       1  UNL1        0.2414
     21 C         138.0156  140.0296  160.5818 C.ar    1  UNL1        0.1391
     22 C         138.2954  138.7629  161.3348 C.ar    1  UNL1        0.0382
     23 C         138.6417  138.8183  162.7932 C.ar    1  UNL1        0.0215
     24 C         138.7083  140.1403  163.4986 C.ar    1  UNL1        0.1063
     25 C         138.4285  141.4071  162.7457 C.ar    1  UNL1        0.0215
     26 C         138.0822  141.3518  161.2872 C.ar    1  UNL1        0.0382
     27 O         137.6693  139.9743  159.1234 O.3     1  UNL1       -0.4706
     28 C         138.2565  140.9768  158.1745 C.3     1  UNL1        0.2320
     29 C         142.7183  141.2310  157.6473 C.ar    1  UNL1        0.0533
     30 C         141.9702  140.0335  157.1407 C.ar    1  UNL1        0.0043
     31 C         140.4830  139.9488  157.3165 C.ar    1  UNL1       -0.0005
     32 C         139.7438  141.0615  157.9988 C.ar    1  UNL1        0.0212
     33 C         140.4919  142.2589  158.5053 C.ar    1  UNL1       -0.0005
     34 C         141.9791  142.3437  158.3296 C.ar    1  UNL1        0.0043
     35 C         146.3894  142.7224  157.4272 C.3     1  UNL1        0.1109
     36 N         144.9022  142.6377  157.6029 N.am    1  UNL1       -0.2992
     37 C         144.2055  141.3157  157.4716 C.2     1  UNL1        0.2459
     38 O         144.9962  140.0785  157.1645 O.2     1  UNL1       -0.2701
     39 H         144.3833  143.4497  157.8045 H       1  UNL1        0.1498
@<TRIPOS>BOND
     1    35    36    1
     2    36    37   am
     3    37    38    2
     4    37    29    1
     5    29    30   ar
     6    30    31   ar
     7    31    32   ar
     8    32    28    1
     9    28    27    1
    10    27    21    1
    11    21    22   ar
    12    22    23   ar
    13    23    24   ar
    14    24     1    1
    15     1     2    2
    16     1     3    2
    17     1     4    1
    18     4    15    1
    19    15    16    2
    20    15    17   am
    21    17    18    1
    22     4     5    1
    23     5     6    1
    24     6     7    1
    25     7     8    1
    26     8     9    1
    27     9    10    1
    28    10    11    1
    29    11    12    1
    30     7    13    1
    31    24    25   ar
    32    25    26   ar
    33    32    33   ar
    34    33    34   ar
    35    34    29   ar
    36    26    21   ar
    37    13     4    1
    38    12     7    1
    39    36    39    1
    40    17    19    1
    41    18    20    1
    42    10    14    1
@<TRIPOS>MOLECULE
*****
 39 42 0 0 0
SMALL
GASTEIGER

@<TRIPOS>ATOM
      1 S         140.8777  138.8603  161.6910 S.O2    1  UNL1        0.0134
      2 O         140.8452  140.1483  161.2879 O.2     1  UNL1       -0.1683
      3 O         140.9292  137.3857  161.9616 O.2     1  UNL1       -0.1683
      4 C         140.7558  139.1260  163.1622 C.3     1  UNL1        0.1845
      5 C         139.3632  138.5981  162.9823 C.3     1  UNL1        0.0313
      6 C         138.6771  138.6364  164.3156 C.3     1  UNL1        0.0024
      7 C         139.6456  139.1879  165.3197 C.3     1  UNL1        0.0048
      8 C         140.7170  139.7508  166.2057 C.3     1  UNL1        0.0172
      9 C         140.4480  139.9625  167.6661 C.3     1  UNL1        0.0686
     10 N         139.1075  139.6113  168.2404 N.3     1  UNL1       -0.2975
     11 C         138.0361  139.0483  167.3544 C.3     1  UNL1        0.0686
     12 C         138.3051  138.8366  165.8940 C.3     1  UNL1        0.0172
     13 C         140.9302  139.4905  164.6069 C.3     1  UNL1        0.0314
     14 H         138.7307  140.4650  168.6521 H       1  UNL1        0.1232
     15 C         142.1737  139.5983  163.0347 C.2     1  UNL1        0.2644
     16 O         142.6080  140.8765  163.0419 O.2     1  UNL1       -0.2713
     17 N         143.2848  138.6027  162.8791 N.am    1  UNL1       -0.1956
     18 O         144.7028  139.0752  162.7516 O.3     1  UNL1       -0.2951
     19 H         143.0834  137.6392  162.8606 H       1  UNL1        0.1823
     20 H         144.7253  140.0442  162.7888 H       1  UNL1        0.2414
     21 C         141.2437  138.0631  157.2774 C.ar    1  UNL1        0.1391
     22 C         142.4770  138.1849  158.1223 C.ar    1  UNL1        0.0382
     23 C         142.3550  138.4506  159.5935 C.ar    1  UNL1        0.0215
     24 C         140.9997  138.5946  160.2198 C.ar    1  UNL1        0.1063
     25 C         139.7663  138.4728  159.3749 C.ar    1  UNL1        0.0215
     26 C         139.8883  138.2071  157.9037 C.ar    1  UNL1        0.0382
     27 O         141.3657  137.7974  155.8062 O.3     1  UNL1       -0.4706
     28 C         142.4973  136.9611  155.2863 C.3     1  UNL1        0.2320
     29 C         142.7794  132.6116  156.4052 C.ar    1  UNL1        0.0533
     30 C         141.7287  133.0706  155.4380 C.ar    1  UNL1        0.0043
     31 C         141.6346  134.5204  155.0651 C.ar    1  UNL1       -0.0005
     32 C         142.5913  135.5113  155.6593 C.ar    1  UNL1        0.0212
     33 C         143.6420  135.0522  156.6264 C.ar    1  UNL1       -0.0005
     34 C         143.7360  133.6024  156.9994 C.ar    1  UNL1        0.0043
     35 C         143.7542  129.2978  158.3593 C.3     1  UNL1        0.1109
     36 N         143.6602  130.7476  157.9863 N.am    1  UNL1       -0.2992
     37 C         142.8734  131.1618  156.7781 C.2     1  UNL1        0.2459
     38 O         142.1807  130.1260  155.9430 O.2     1  UNL1       -0.2701
     39 H         144.1148  131.4273  158.5345 H       1  UNL1        0.1498
@<TRIPOS>BOND
     1    35    36    1
     2    36    37   am
     3    37    38    2
     4    37    29    1
     5    29    30   ar
     6    30    31   ar
     7    31    32   ar
     8    32    28    1
     9    28    27    1
    10    27    21    1
    11    21    22   ar
    12    22    23   ar
    13    23    24   ar
    14    24     1    1
    15     1     2    2
    16     1     3    2
    17     1     4    1
    18     4    15    1
    19    15    16    2
    20    15    17   am
    21    17    18    1
    22     4     5    1
    23     5     6    1
    24     6     7    1
    25     7     8    1
    26     8     9    1
    27     9    10    1
    28    10    11    1
    29    11    12    1
    30     7    13    1
    31    24    25   ar
    32    25    26   ar
    33    32    33   ar
    34    33    34   ar
    35    34    29   ar
    36    26    21   ar
    37    13     4    1
    38    12     7    1
    39    36    39    1
    40    17    19    1
    41    18    20    1
    42    10    14    1
@<TRIPOS>MOLECULE
*****
 39 42 0 0 0
SMALL
GASTEIGER

@<TRIPOS>ATOM
      1 S         140.7461  138.8172  162.2239 S.O2    1  UNL1        0.0134
      2 O         140.8067  140.1006  161.8096 O.2     1  UNL1       -0.1683
      3 O         140.7206  137.3452  162.5120 O.2     1  UNL1       -0.1683
      4 C         140.4014  139.1033  163.6554 C.3     1  UNL1        0.1845
      5 C         141.8694  138.8981  163.8857 C.3     1  UNL1        0.0313
      6 C         142.1401  139.0878  165.3488 C.3     1  UNL1        0.0024
      7 C         140.8394  139.4103  166.0229 C.3     1  UNL1        0.0048
      8 C         139.4720  139.7211  166.5553 C.3     1  UNL1        0.0172
      9 C         139.2796  139.9872  168.0189 C.3     1  UNL1        0.0686
     10 N         140.4548  139.9426  168.9501 N.3     1  UNL1       -0.2975
     11 C         141.8222  139.6317  168.4177 C.3     1  UNL1        0.0686
     12 C         142.0145  139.3656  166.9541 C.3     1  UNL1        0.0172
     13 C         139.7648  139.4199  164.9764 C.3     1  UNL1        0.0314
     14 H         140.2454  139.2354  169.6547 H       1  UNL1        0.1232
     15 C         139.0055  139.2488  163.1261 C.2     1  UNL1        0.2644
     16 O         138.1889  138.2594  162.7054 O.2     1  UNL1       -0.2713
     17 N         138.3804  140.6083  163.0226 N.am    1  UNL1       -0.1956
     18 O         136.9845  140.7537  162.4932 O.3     1  UNL1       -0.2951
     19 H         138.8863  141.4053  163.3022 H       1  UNL1        0.1823
     20 H         136.6323  139.8790  162.2655 H       1  UNL1        0.2414
     21 C         141.7802  137.9587  157.9294 C.ar    1  UNL1        0.1391
     22 C         140.3999  138.4213  158.2904 C.ar    1  UNL1        0.0382
     23 C         140.0551  138.7075  159.7219 C.ar    1  UNL1        0.0215
     24 C         141.0908  138.5310  160.7924 C.ar    1  UNL1        0.1063
     25 C         142.4713  138.0684  160.4315 C.ar    1  UNL1        0.0215
     26 C         142.8160  137.7822  159.0000 C.ar    1  UNL1        0.0382
     27 O         142.1250  137.6726  156.4979 O.3     1  UNL1       -0.4706
     28 C         141.5092  136.4969  155.7987 C.3     1  UNL1        0.2320
     29 C         143.0567  132.3459  156.5886 C.ar    1  UNL1        0.0533
     30 C         143.6976  133.5253  157.2581 C.ar    1  UNL1        0.0043
     31 C         143.1818  134.9089  156.9948 C.ar    1  UNL1       -0.0005
     32 C         142.0250  135.1132  156.0620 C.ar    1  UNL1        0.0212
     33 C         141.3841  133.9338  155.3925 C.ar    1  UNL1       -0.0005
     34 C         141.8999  132.5501  155.6558 C.ar    1  UNL1        0.0043
     35 C         144.7067  129.2483  158.4413 C.3     1  UNL1        0.1109
     36 N         144.1909  130.6320  158.1781 N.am    1  UNL1       -0.2992
     37 C         143.5725  130.9622  156.8519 C.2     1  UNL1        0.2459
     38 O         143.4700  129.9087  155.7890 O.2     1  UNL1       -0.2701
     39 H         144.2582  131.3234  158.8756 H       1  UNL1        0.1498
@<TRIPOS>BOND
     1    35    36    1
     2    36    37   am
     3    37    38    2
     4    37    29    1
     5    29    30   ar
     6    30    31   ar
     7    31    32   ar
     8    32    28    1
     9    28    27    1
    10    27    21    1
    11    21    22   ar
    12    22    23   ar
    13    23    24   ar
    14    24     1    1
    15     1     2    2
    16     1     3    2
    17     1     4    1
    18     4    15    1
    19    15    16    2
    20    15    17   am
    21    17    18    1
    22     4     5    1
    23     5     6    1
    24     6     7    1
    25     7     8    1
    26     8     9    1
    27     9    10    1
    28    10    11    1
    29    11    12    1
    30     7    13    1
    31    24    25   ar
    32    25    26   ar
    33    32    33   ar
    34    33    34   ar
    35    34    29   ar
    36    26    21   ar
    37    13     4    1
    38    12     7    1
    39    36    39    1
    40    17    19    1
    41    18    20    1
    42    10    14    1
@<TRIPOS>MOLECULE
*****
 39 42 0 0 0
SMALL
GASTEIGER

@<TRIPOS>ATOM
      1 S         142.7729  140.1214  165.0397 S.O2    1  UNL1        0.0134
      2 O         144.1153  140.1673  164.9044 O.2     1  UNL1       -0.1683
      3 O         141.2793  139.9823  165.0295 O.2     1  UNL1       -0.1683
      4 C         142.6973  140.8359  166.3564 C.3     1  UNL1        0.1845
      5 C         142.5535  139.4531  166.9199 C.3     1  UNL1        0.0313
      6 C         142.4224  139.5708  168.4095 C.3     1  UNL1        0.0024
      7 C         142.4852  141.0264  168.7668 C.3     1  UNL1        0.0048
      8 C         142.5642  142.5104  168.9705 C.3     1  UNL1        0.0172
      9 C         142.4731  143.0834  170.3537 C.3     1  UNL1        0.0686
     10 N         142.3030  142.1724  171.5332 N.3     1  UNL1       -0.2975
     11 C         142.2240  140.6885  171.3295 C.3     1  UNL1        0.0686
     12 C         142.3151  140.1154  169.9463 C.3     1  UNL1        0.0172
     13 C         142.6551  141.8082  167.4979 C.3     1  UNL1        0.0314
     14 H         141.4398  142.4521  171.9991 H       1  UNL1        0.1232
     15 C         142.8569  142.0692  165.5179 C.2     1  UNL1        0.2644
     16 O         141.9636  142.5779  164.6429 O.2     1  UNL1       -0.2713
     17 N         144.1172  142.8780  165.6056 N.am    1  UNL1       -0.1956
     18 O         144.2767  144.1114  164.7669 O.3     1  UNL1       -0.2951
     19 H         144.8396  142.5993  166.2135 H       1  UNL1        0.1823
     20 H         143.4800  144.2420  164.2292 H       1  UNL1        0.2414
     21 C         142.9997  137.9781  161.0895 C.ar    1  UNL1        0.1391
     22 C         144.0886  138.9283  161.4908 C.ar    1  UNL1        0.0382
     23 C         144.0131  139.6427  162.8075 C.ar    1  UNL1        0.0215
     24 C         142.8485  139.4070  163.7230 C.ar    1  UNL1        0.1063
     25 C         141.7595  138.4567  163.3217 C.ar    1  UNL1        0.0215
     26 C         141.8350  137.7423  162.0049 C.ar    1  UNL1        0.0382
     27 O         143.0753  137.2636  159.7727 O.3     1  UNL1       -0.4706
     28 C         142.4466  137.8700  158.5532 C.3     1  UNL1        0.2320
     29 C         140.8491  142.0743  158.6996 C.ar    1  UNL1        0.0533
     30 C         139.9457  140.9175  159.0089 C.ar    1  UNL1        0.0043
     31 C         140.4782  139.5161  158.9601 C.ar    1  UNL1       -0.0005
     32 C         141.9141  139.2715  158.6020 C.ar    1  UNL1        0.0212
     33 C         142.8175  140.4283  158.2927 C.ar    1  UNL1       -0.0005
     34 C         142.2850  141.8297  158.3415 C.ar    1  UNL1        0.0043
     35 C         140.2955  145.9078  157.8347 C.3     1  UNL1        0.1109
     36 N         140.8280  144.5064  157.7859 N.am    1  UNL1       -0.2992
     37 C         140.3166  143.4758  158.7484 C.2     1  UNL1        0.2459
     38 O         139.2727  143.8466  159.7597 O.2     1  UNL1       -0.2701
     39 H         141.5132  144.2630  157.1221 H       1  UNL1        0.1498
@<TRIPOS>BOND
     1    35    36    1
     2    36    37   am
     3    37    38    2
     4    37    29    1
     5    29    30   ar
     6    30    31   ar
     7    31    32   ar
     8    32    28    1
     9    28    27    1
    10    27    21    1
    11    21    22   ar
    12    22    23   ar
    13    23    24   ar
    14    24     1    1
    15     1     2    2
    16     1     3    2
    17     1     4    1
    18     4    15    1
    19    15    16    2
    20    15    17   am
    21    17    18    1
    22     4     5    1
    23     5     6    1
    24     6     7    1
    25     7     8    1
    26     8     9    1
    27     9    10    1
    28    10    11    1
    29    11    12    1
    30     7    13    1
    31    24    25   ar
    32    25    26   ar
    33    32    33   ar
    34    33    34   ar
    35    34    29   ar
    36    26    21   ar
    37    13     4    1
    38    12     7    1
    39    36    39    1
    40    17    19    1
    41    18    20    1
    42    10    14    1
@<TRIPOS>MOLECULE
*****
 39 42 0 0 0
SMALL
GASTEIGER

@<TRIPOS>ATOM
      1 S         141.5828  139.3670  164.8872 S.O2    1  UNL1        0.0134
      2 O         141.4534  140.6386  164.4529 O.2     1  UNL1       -0.1683
      3 O         141.7842  137.9139  165.2007 O.2     1  UNL1       -0.1683
      4 C         141.1224  139.6067  166.2945 C.3     1  UNL1        0.1845
      5 C         142.5903  139.6414  166.6017 C.3     1  UNL1        0.0313
      6 C         142.7503  139.8848  168.0731 C.3     1  UNL1        0.0024
      7 C         141.3814  140.0006  168.6755 C.3     1  UNL1        0.0048
      8 C         139.9560  140.0930  169.1331 C.3     1  UNL1        0.0172
      9 C         139.6474  140.3377  170.5805 C.3     1  UNL1        0.0686
     10 N         140.7642  140.4901  171.5701 N.3     1  UNL1       -0.2975
     11 C         142.1897  140.3977  171.1125 C.3     1  UNL1        0.0686
     12 C         142.4983  140.1530  169.6651 C.3     1  UNL1        0.0172
     13 C         140.3753  139.8288  167.5762 C.3     1  UNL1        0.0314
     14 H         140.6338  139.7647  172.2753 H       1  UNL1        0.1232
     15 C         139.7509  139.5220  165.6933 C.2     1  UNL1        0.2644
     16 O         139.1005  138.4036  165.3077 O.2     1  UNL1       -0.2713
     17 N         138.9535  140.7718  165.4649 N.am    1  UNL1       -0.1956
     18 O         137.5819  140.6869  164.8637 O.3     1  UNL1       -0.2951
     19 H         139.3303  141.6478  165.7096 H       1  UNL1        0.1823
     20 H         137.3648  139.7589  164.6832 H       1  UNL1        0.2414
     21 C         142.9638  138.6477  160.6653 C.ar    1  UNL1        0.1391
     22 C         143.8947  139.2703  161.6631 C.ar    1  UNL1        0.0382
     23 C         143.4343  139.5101  163.0704 C.ar    1  UNL1        0.0215
     24 C         142.0431  139.1272  163.4799 C.ar    1  UNL1        0.1063
     25 C         141.1121  138.5046  162.4821 C.ar    1  UNL1        0.0215
     26 C         141.5725  138.2648  161.0748 C.ar    1  UNL1        0.0382
     27 O         143.4241  138.4080  159.2579 O.3     1  UNL1       -0.4706
     28 C         143.1548  139.4325  158.1959 C.3     1  UNL1        0.2320
     29 C         141.2773  143.3718  159.2941 C.ar    1  UNL1        0.0533
     30 C         140.4118  142.2152  158.8900 C.ar    1  UNL1        0.0043
     31 C         141.0376  140.9021  158.5239 C.ar    1  UNL1       -0.0005
     32 C         142.5289  140.7456  158.5619 C.ar    1  UNL1        0.0212
     33 C         143.3944  141.9022  158.9660 C.ar    1  UNL1       -0.0005
     34 C         142.7686  143.2153  159.3321 C.ar    1  UNL1        0.0043
     35 C         139.7077  146.3036  161.4600 C.3     1  UNL1        0.1109
     36 N         140.3335  144.9905  161.0940 N.am    1  UNL1       -0.2992
     37 C         140.6514  144.6849  159.6602 C.2     1  UNL1        0.2459
     38 O         140.3434  145.6925  158.5925 O.2     1  UNL1       -0.2701
     39 H         140.5357  144.3292  161.7947 H       1  UNL1        0.1498
@<TRIPOS>BOND
     1    35    36    1
     2    36    37   am
     3    37    38    2
     4    37    29    1
     5    29    30   ar
     6    30    31   ar
     7    31    32   ar
     8    32    28    1
     9    28    27    1
    10    27    21    1
    11    21    22   ar
    12    22    23   ar
    13    23    24   ar
    14    24     1    1
    15     1     2    2
    16     1     3    2
    17     1     4    1
    18     4    15    1
    19    15    16    2
    20    15    17   am
    21    17    18    1
    22     4     5    1
    23     5     6    1
    24     6     7    1
    25     7     8    1
    26     8     9    1
    27     9    10    1
    28    10    11    1
    29    11    12    1
    30     7    13    1
    31    24    25   ar
    32    25    26   ar
    33    32    33   ar
    34    33    34   ar
    35    34    29   ar
    36    26    21   ar
    37    13     4    1
    38    12     7    1
    39    36    39    1
    40    17    19    1
    41    18    20    1
    42    10    14    1
@<TRIPOS>MOLECULE
*****
 39 42 0 0 0
SMALL
GASTEIGER

@<TRIPOS>ATOM
      1 S         141.0752  139.2042  158.9067 S.O2    1  UNL1        0.0134
      2 O         141.5621  140.1914  158.1251 O.2     1  UNL1       -0.1683
      3 O         140.4514  138.2394  159.8711 O.2     1  UNL1       -0.1683
      4 C         141.7168  138.0609  158.1780 C.3     1  UNL1        0.1845
      5 C         140.5012  138.1421  157.3029 C.3     1  UNL1        0.0313
      6 C         140.6176  137.0819  156.2482 C.3     1  UNL1        0.0024
      7 C         141.9052  136.3454  156.4713 C.3     1  UNL1        0.0048
      8 C         143.2166  135.7045  156.8168 C.3     1  UNL1        0.0172
      9 C         143.7340  134.5634  155.9921 C.3     1  UNL1        0.0686
     10 N         142.9399  134.0632  154.8220 N.3     1  UNL1       -0.2975
     11 C         141.6285  134.7041  154.4765 C.3     1  UNL1        0.0686
     12 C         141.1112  135.8452  155.3012 C.3     1  UNL1        0.0172
     13 C         142.5846  136.9504  157.6640 C.3     1  UNL1        0.0314
     14 H         142.7486  133.0765  154.9961 H       1  UNL1        0.1232
     15 C         142.7983  138.2186  159.2053 C.2     1  UNL1        0.2644
     16 O         143.7330  139.1913  159.2582 O.2     1  UNL1       -0.2713
     17 N         142.9188  137.2285  160.3257 N.am    1  UNL1       -0.1956
     18 O         144.0003  137.3864  161.3529 O.3     1  UNL1       -0.2951
     19 H         142.2880  136.4752  160.3868 H       1  UNL1        0.1823
     20 H         144.5294  138.1729  161.1472 H       1  UNL1        0.2414
     21 C         139.1504  142.6343  161.0928 C.ar    1  UNL1        0.1391
     22 C         140.6213  142.6621  160.8005 C.ar    1  UNL1        0.0382
     23 C         141.2629  141.5187  160.0718 C.ar    1  UNL1        0.0215
     24 C         140.4336  140.3476  159.6354 C.ar    1  UNL1        0.1063
     25 C         138.9626  140.3198  159.9275 C.ar    1  UNL1        0.0215
     26 C         138.3210  141.4632  160.6562 C.ar    1  UNL1        0.0382
     27 O         138.5088  143.7777  161.8215 O.3     1  UNL1       -0.4706
     28 C         137.7613  143.5287  163.0980 C.3     1  UNL1        0.2320
     29 C         139.6873  141.1674  166.4092 C.ar    1  UNL1        0.0533
     30 C         140.0206  142.6190  166.2313 C.ar    1  UNL1        0.0043
     31 C         139.3786  143.4061  165.1275 C.ar    1  UNL1       -0.0005
     32 C         138.4033  142.7416  164.2017 C.ar    1  UNL1        0.0212
     33 C         138.0700  141.2899  164.3796 C.ar    1  UNL1       -0.0005
     34 C         138.7120  140.5028  165.4834 C.ar    1  UNL1        0.0043
     35 C         142.4632  139.4433  168.6614 C.3     1  UNL1        0.1109
     36 N         141.8212  140.2304  167.5576 N.am    1  UNL1       -0.2992
     37 C         140.3293  140.3803  167.5129 C.2     1  UNL1        0.2459
     38 O         139.4794  139.7430  168.5720 O.2     1  UNL1       -0.2701
     39 H         142.3790  140.6487  166.8625 H       1  UNL1        0.1498
@<TRIPOS>BOND
     1    35    36    1
     2    36    37   am
     3    37    38    2
     4    37    29    1
     5    29    30   ar
     6    30    31   ar
     7    31    32   ar
     8    32    28    1
     9    28    27    1
    10    27    21    1
    11    21    22   ar
    12    22    23   ar
    13    23    24   ar
    14    24     1    1
    15     1     2    2
    16     1     3    2
    17     1     4    1
    18     4    15    1
    19    15    16    2
    20    15    17   am
    21    17    18    1
    22     4     5    1
    23     5     6    1
    24     6     7    1
    25     7     8    1
    26     8     9    1
    27     9    10    1
    28    10    11    1
    29    11    12    1
    30     7    13    1
    31    24    25   ar
    32    25    26   ar
    33    32    33   ar
    34    33    34   ar
    35    34    29   ar
    36    26    21   ar
    37    13     4    1
    38    12     7    1
    39    36    39    1
    40    17    19    1
    41    18    20    1
    42    10    14    1
@<TRIPOS>MOLECULE
*****
 39 42 0 0 0
SMALL
GASTEIGER

@<TRIPOS>ATOM
      1 S         141.3641  139.3559  164.5521 S.O2    1  UNL1        0.0134
      2 O         141.3705  140.6371  164.1269 O.2     1  UNL1       -0.1683
      3 O         141.4150  137.8879  164.8565 O.2     1  UNL1       -0.1683
      4 C         140.8917  139.6292  165.9492 C.3     1  UNL1        0.1845
      5 C         142.3492  139.5370  166.2918 C.3     1  UNL1        0.0313
      6 C         142.4934  139.7607  167.7680 C.3     1  UNL1        0.0024
      7 C         141.1251  139.9912  168.3379 C.3     1  UNL1        0.0048
      8 C         139.7020  140.2036  168.7616 C.3     1  UNL1        0.0172
      9 C         139.3802  140.4688  170.2025 C.3     1  UNL1        0.0686
     10 N         140.4815  140.5215  171.2195 N.3     1  UNL1       -0.2975
     11 C         141.9045  140.3090  170.7958 C.3     1  UNL1        0.0686
     12 C         142.2264  140.0439  169.3549 C.3     1  UNL1        0.0172
     13 C         140.1352  139.9099  167.2138 C.3     1  UNL1        0.0314
     14 H         140.2723  139.8075  171.9173 H       1  UNL1        0.1232
     15 C         139.5330  139.6643  165.3147 C.2     1  UNL1        0.2644
     16 O         138.8345  138.6148  164.8318 O.2     1  UNL1       -0.2713
     17 N         138.8085  140.9691  165.1651 N.am    1  UNL1       -0.1956
     18 O         137.4498  141.0041  164.5306 O.3     1  UNL1       -0.2951
     19 H         139.2247  141.8026  165.4834 H       1  UNL1        0.1823
     20 H         137.1887  140.1053  164.2757 H       1  UNL1        0.2414
     21 C         142.7814  138.5358  160.3606 C.ar    1  UNL1        0.1391
     22 C         143.6886  138.2686  161.5248 C.ar    1  UNL1        0.0382
     23 C         143.2162  138.5420  162.9220 C.ar    1  UNL1        0.0215
     24 C         141.8365  139.0825  163.1549 C.ar    1  UNL1        0.1063
     25 C         140.9293  139.3497  161.9907 C.ar    1  UNL1        0.0215
     26 C         141.4017  139.0764  160.5935 C.ar    1  UNL1        0.0382
     27 O         143.2538  138.2625  158.9635 O.3     1  UNL1       -0.4706
     28 C         142.7755  139.1192  157.8288 C.3     1  UNL1        0.2320
     29 C         145.6303  141.9192  155.7650 C.ar    1  UNL1        0.0533
     30 C         145.4809  141.9658  157.2568 C.ar    1  UNL1        0.0043
     31 C         144.5293  141.0325  157.9448 C.ar    1  UNL1       -0.0005
     32 C         143.7271  140.0526  157.1409 C.ar    1  UNL1        0.0212
     33 C         143.8766  140.0059  155.6491 C.ar    1  UNL1       -0.0005
     34 C         144.8282  140.9393  154.9611 C.ar    1  UNL1        0.0043
     35 C         147.0082  144.9737  153.6385 C.3     1  UNL1        0.1109
     36 N         146.0566  144.0404  154.3264 N.am    1  UNL1       -0.2992
     37 C         146.5819  142.8526  155.0770 C.2     1  UNL1        0.2459
     38 O         148.0589  142.5982  155.1396 O.2     1  UNL1       -0.2701
     39 H         145.0872  144.2073  154.2854 H       1  UNL1        0.1498
@<TRIPOS>BOND
     1    35    36    1
     2    36    37   am
     3    37    38    2
     4    37    29    1
     5    29    30   ar
     6    30    31   ar
     7    31    32   ar
     8    32    28    1
     9    28    27    1
    10    27    21    1
    11    21    22   ar
    12    22    23   ar
    13    23    24   ar
    14    24     1    1
    15     1     2    2
    16     1     3    2
    17     1     4    1
    18     4    15    1
    19    15    16    2
    20    15    17   am
    21    17    18    1
    22     4     5    1
    23     5     6    1
    24     6     7    1
    25     7     8    1
    26     8     9    1
    27     9    10    1
    28    10    11    1
    29    11    12    1
    30     7    13    1
    31    24    25   ar
    32    25    26   ar
    33    32    33   ar
    34    33    34   ar
    35    34    29   ar
    36    26    21   ar
    37    13     4    1
    38    12     7    1
    39    36    39    1
    40    17    19    1
    41    18    20    1
    42    10    14    1
