@<TRIPOS>MOLECULE
*****
 44 47 0 0 0
SMALL
GASTEIGER

@<TRIPOS>ATOM
      1 C         141.3414  140.8615  162.3478 C.3     1  UNL1        0.0809
      2 C         140.9119  140.6437  163.7685 C.ar    1  UNL1        0.0375
      3 C         141.0638  141.7452  164.7752 C.ar    1  UNL1        0.0023
      4 C         140.6344  141.5275  166.1959 C.ar    1  UNL1        0.0181
      5 C         140.7863  142.6290  167.2025 C.ar    1  UNL1        0.0082
      6 C         140.3568  142.4112  168.6231 C.ar    1  UNL1        0.0347
      7 BR        140.5087  143.5128  169.6299 Br      1  UNL1       -0.0490
      8 C         139.7755  141.0918  169.0370 C.ar    1  UNL1        0.0082
      9 C         139.6236  139.9903  168.0303 C.ar    1  UNL1        0.0197
     10 C         140.0530  140.2081  166.6098 C.ar    1  UNL1        0.0844
     11 N         139.9012  139.1065  165.6030 N.ar    1  UNL1       -0.2119
     12 C         140.3306  139.3243  164.1824 C.ar    1  UNL1        0.2211
     13 O         140.1787  138.2227  163.1756 O.3     1  UNL1       -0.4563
     14 C         138.8299  137.6159  162.9256 C.3     1  UNL1        0.2542
     15 C         140.4670  140.3982  161.2206 C.ar    1  UNL1        0.0245
     16 C         139.0468  140.8721  161.1295 C.ar    1  UNL1        0.0200
     17 C         138.1724  140.4088  160.0022 C.ar    1  UNL1        0.1019
     18 N         138.7182  139.4715  158.9660 N.ar    1  UNL1       -0.2076
     19 C         140.1384  138.9976  159.0572 C.ar    1  UNL1        0.2598
     20 C         141.0128  139.4609  160.1845 C.ar    1  UNL1        0.1879
     21 O         140.6843  138.0603  158.0211 O.3     1  UNL1       -0.4541
     22 C         139.8323  137.6517  156.8561 C.3     1  UNL1        0.2543
     23 O         142.4331  138.9870  160.2756 O.3     1  UNL1       -0.4670
     24 C         142.7355  137.6261  160.8295 C.3     1  UNL1        0.2527
     25 C         142.6453  141.5426  162.0545 C.3     1  UNL1        0.1204
     26 O         143.3739  140.4762  162.8174 O.3     1  UNL1       -0.3818
     27 H         144.3259  140.6616  162.8030 H       1  UNL1        0.2107
     28 C         140.1713  144.5322  161.2230 C.ar    1  UNL1        0.1915
     29 C         140.8999  143.4659  161.9859 C.ar    1  UNL1        0.0444
     30 C         141.9166  142.6089  161.2917 C.ar    1  UNL1        0.0588
     31 C         142.2046  142.8184  159.8346 C.ar    1  UNL1        0.2256
     32 N         141.4760  143.8847  159.0717 N.ar    1  UNL1       -0.1743
     33 C         140.4593  144.7416  159.7659 C.ar    1  UNL1        0.2626
     34 C         138.2720  144.7972  162.9759 C.3     1  UNL1        0.2527
     35 O         139.1546  145.3892  161.9173 O.3     1  UNL1       -0.4667
     36 O         143.2213  141.9614  159.1403 O.3     1  UNL1       -0.4562
     37 C         142.6897  141.7277  157.7572 C.3     1  UNL1        0.2542
     38 O         139.7306  145.8080  159.0031 O.3     1  UNL1       -0.4540
     39 C         140.1195  146.1160  157.5875 C.3     1  UNL1        0.2543
     40 C         143.9491  142.2237  161.7612 C.3     1  UNL1        0.0493
     41 C         144.8376  142.6599  162.8883 C.3     1  UNL1        0.0750
     42 N         144.3161  143.6015  163.9331 N.3     1  UNL1       -0.2702
     43 C         144.3396  143.2044  165.3794 C.3     1  UNL1        0.0897
     44 C         143.7711  144.9401  163.5315 C.3     1  UNL1        0.0897
@<TRIPOS>BOND
     1    34    35    1
     2    35    28    1
     3    28    29   ar
     4    29    30   ar
     5    30    25    1
     6    25    26    1
     7    25    40    1
     8    40    41    1
     9    41    42    1
    10    42    43    1
    11    42    44    1
    12    25     1    1
    13     1     2    1
    14     2     3   ar
    15     3     4   ar
    16     4     5   ar
    17     5     6   ar
    18     6     7    1
    19     6     8   ar
    20     8     9   ar
    21     9    10   ar
    22    10    11   ar
    23    11    12   ar
    24    12    13    1
    25    13    14    1
    26     1    15    1
    27    15    16   ar
    28    16    17   ar
    29    17    18   ar
    30    18    19   ar
    31    19    21    1
    32    21    22    1
    33    19    20   ar
    34    20    23    1
    35    23    24    1
    36    30    31   ar
    37    31    36    1
    38    36    37    1
    39    31    32   ar
    40    32    33   ar
    41    33    38    1
    42    38    39    1
    43    33    28   ar
    44    12     2   ar
    45    20    15   ar
    46    10     4   ar
    47    26    27    1
@<TRIPOS>MOLECULE
*****
 44 47 0 0 0
SMALL
GASTEIGER

@<TRIPOS>ATOM
      1 C         141.8874  142.4356  161.3243 C.3     1  UNL1        0.0809
      2 C         141.8384  141.8565  162.7072 C.ar    1  UNL1        0.0375
      3 C         140.5720  141.2332  163.2148 C.ar    1  UNL1        0.0023
      4 C         140.5229  140.6541  164.5977 C.ar    1  UNL1        0.0181
      5 C         139.2566  140.0309  165.1053 C.ar    1  UNL1        0.0082
      6 C         139.2076  139.4518  166.4882 C.ar    1  UNL1        0.0347
      7 BR        137.9411  138.8285  166.9959 Br      1  UNL1       -0.0490
      8 C         140.4250  139.4960  167.3634 C.ar    1  UNL1        0.0082
      9 C         141.6914  140.1193  166.8557 C.ar    1  UNL1        0.0197
     10 C         141.7404  140.6984  165.4729 C.ar    1  UNL1        0.0844
     11 N         143.0068  141.3217  164.9652 N.ar    1  UNL1       -0.2119
     12 C         143.0558  141.9007  163.5824 C.ar    1  UNL1        0.2211
     13 O         144.3222  142.5241  163.0747 O.3     1  UNL1       -0.4563
     14 C         145.6132  141.7636  163.1455 C.3     1  UNL1        0.2542
     15 C         142.7440  141.7949  160.2728 C.ar    1  UNL1        0.0245
     16 C         143.7982  142.5993  159.5716 C.ar    1  UNL1        0.0200
     17 C         144.6549  141.9586  158.5201 C.ar    1  UNL1        0.1019
     18 N         144.4574  140.5135  158.1699 N.ar    1  UNL1       -0.2076
     19 C         143.4032  139.7091  158.8711 C.ar    1  UNL1        0.2598
     20 C         142.5466  140.3499  159.9226 C.ar    1  UNL1        0.1879
     21 O         143.2058  138.2640  158.5209 O.3     1  UNL1       -0.4541
     22 C         142.1627  137.8714  157.5170 C.3     1  UNL1        0.2543
     23 O         141.4924  139.5455  160.6238 O.3     1  UNL1       -0.4670
     24 C         141.8844  138.3695  161.4685 C.3     1  UNL1        0.2527
     25 C         141.0797  143.6554  160.9929 C.3     1  UNL1        0.1204
     26 O         141.9769  144.4856  161.8623 O.3     1  UNL1       -0.3818
     27 H         141.6779  145.4083  161.8477 H       1  UNL1        0.2107
     28 C         138.3269  141.0236  159.8769 C.ar    1  UNL1        0.1915
     29 C         139.2241  141.8538  160.7463 C.ar    1  UNL1        0.0444
     30 C         140.1825  142.8252  160.1236 C.ar    1  UNL1        0.0588
     31 C         140.2437  142.9664  158.6315 C.ar    1  UNL1        0.2256
     32 N         139.3465  142.1361  157.7622 N.ar    1  UNL1       -0.1743
     33 C         138.3881  141.1647  158.3849 C.ar    1  UNL1        0.2626
     34 C         137.8159  139.1812  161.6361 C.3     1  UNL1        0.2527
     35 O         137.3685  140.0521  160.4997 O.3     1  UNL1       -0.4667
     36 O         141.2022  143.9378  158.0087 O.3     1  UNL1       -0.4562
     37 C         141.5854  143.3484  156.6837 C.3     1  UNL1        0.2542
     38 O         137.4909  140.3345  157.5155 O.3     1  UNL1       -0.4540
     39 C         136.4752  140.9995  156.6347 C.3     1  UNL1        0.2543
     40 C         140.2720  144.8752  160.6616 C.3     1  UNL1        0.0493
     41 C         139.6234  145.6661  161.7588 C.3     1  UNL1        0.0750
     42 N         139.0891  144.9658  162.9730 N.3     1  UNL1       -0.2702
     43 C         137.7468  144.2982  162.9238 C.3     1  UNL1        0.0897
     44 C         139.8972  144.9333  164.2364 C.3     1  UNL1        0.0897
@<TRIPOS>BOND
     1    34    35    1
     2    35    28    1
     3    28    29   ar
     4    29    30   ar
     5    30    25    1
     6    25    26    1
     7    25    40    1
     8    40    41    1
     9    41    42    1
    10    42    43    1
    11    42    44    1
    12    25     1    1
    13     1     2    1
    14     2     3   ar
    15     3     4   ar
    16     4     5   ar
    17     5     6   ar
    18     6     7    1
    19     6     8   ar
    20     8     9   ar
    21     9    10   ar
    22    10    11   ar
    23    11    12   ar
    24    12    13    1
    25    13    14    1
    26     1    15    1
    27    15    16   ar
    28    16    17   ar
    29    17    18   ar
    30    18    19   ar
    31    19    21    1
    32    21    22    1
    33    19    20   ar
    34    20    23    1
    35    23    24    1
    36    30    31   ar
    37    31    36    1
    38    36    37    1
    39    31    32   ar
    40    32    33   ar
    41    33    38    1
    42    38    39    1
    43    33    28   ar
    44    12     2   ar
    45    20    15   ar
    46    10     4   ar
    47    26    27    1
@<TRIPOS>MOLECULE
*****
 44 47 0 0 0
SMALL
GASTEIGER

@<TRIPOS>ATOM
      1 C         141.9164  141.5873  158.9076 C.3     1  UNL1        0.0809
      2 C         141.2078  140.6304  159.8201 C.ar    1  UNL1        0.0375
      3 C         140.8348  141.0556  161.2093 C.ar    1  UNL1        0.0023
      4 C         140.1263  140.0987  162.1217 C.ar    1  UNL1        0.0181
      5 C         139.7533  140.5239  163.5109 C.ar    1  UNL1        0.0082
      6 C         139.0447  139.5670  164.4233 C.ar    1  UNL1        0.0347
      7 BR        138.6717  139.9921  165.8126 Br      1  UNL1       -0.0490
      8 C         138.7092  138.1850  163.9463 C.ar    1  UNL1        0.0082
      9 C         139.0822  137.7598  162.5571 C.ar    1  UNL1        0.0197
     10 C         139.7908  138.7167  161.6448 C.ar    1  UNL1        0.0844
     11 N         140.1638  138.2915  160.2554 N.ar    1  UNL1       -0.2119
     12 C         140.8723  139.2484  159.3431 C.ar    1  UNL1        0.2211
     13 O         141.2454  138.8233  157.9538 O.3     1  UNL1       -0.4563
     14 C         142.1083  137.6141  157.7457 C.3     1  UNL1        0.2542
     15 C         141.2336  142.8479  158.4664 C.ar    1  UNL1        0.0245
     16 C         141.6076  144.1606  159.0882 C.ar    1  UNL1        0.0200
     17 C         140.9248  145.4212  158.6470 C.ar    1  UNL1        0.1019
     18 N         139.8680  145.3690  157.5837 N.ar    1  UNL1       -0.2076
     19 C         139.4939  144.0562  156.9618 C.ar    1  UNL1        0.2598
     20 C         140.1768  142.7956  157.4032 C.ar    1  UNL1        0.1879
     21 O         138.4371  144.0040  155.8987 O.3     1  UNL1       -0.4541
     22 C         138.0334  145.2573  155.1804 C.3     1  UNL1        0.2543
     23 O         139.8028  141.4829  156.7813 O.3     1  UNL1       -0.4670
     24 C         138.4813  140.8501  157.1028 C.3     1  UNL1        0.2527
     25 C         143.3077  141.2836  158.4366 C.3     1  UNL1        0.1204
     26 O         142.7900  141.0700  157.0451 O.3     1  UNL1       -0.3818
     27 H         143.5267  140.8387  156.4579 H       1  UNL1        0.2107
     28 C         144.4297  143.0982  161.7829 C.ar    1  UNL1        0.1915
     29 C         143.9120  142.8846  160.3914 C.ar    1  UNL1        0.0444
     30 C         143.8255  141.4971  159.8281 C.ar    1  UNL1        0.0588
     31 C         144.2567  140.3233  160.6563 C.ar    1  UNL1        0.2256
     32 N         144.7745  140.5368  162.0478 N.ar    1  UNL1       -0.1743
     33 C         144.8610  141.9243  162.6111 C.ar    1  UNL1        0.2626
     34 C         143.3756  145.0434  163.1450 C.3     1  UNL1        0.2527
     35 O         144.5162  144.4858  162.3462 O.3     1  UNL1       -0.4667
     36 O         144.1702  138.9357  160.0930 O.3     1  UNL1       -0.4562
     37 C         143.8503  138.0384  161.2517 C.3     1  UNL1        0.2542
     38 O         145.3787  142.1379  164.0026 O.3     1  UNL1       -0.4540
     39 C         144.4186  142.2924  165.1447 C.3     1  UNL1        0.2543
     40 C         144.6991  140.9798  157.9655 C.3     1  UNL1        0.0493
     41 C         145.2708  141.7168  156.7907 C.3     1  UNL1        0.0750
     42 N         145.8801  140.9547  155.6515 N.3     1  UNL1       -0.2702
     43 C         145.3386  139.6072  155.2758 C.3     1  UNL1        0.0897
     44 C         147.0309  141.5400  154.8879 C.3     1  UNL1        0.0897
@<TRIPOS>BOND
     1    34    35    1
     2    35    28    1
     3    28    29   ar
     4    29    30   ar
     5    30    25    1
     6    25    26    1
     7    25    40    1
     8    40    41    1
     9    41    42    1
    10    42    43    1
    11    42    44    1
    12    25     1    1
    13     1     2    1
    14     2     3   ar
    15     3     4   ar
    16     4     5   ar
    17     5     6   ar
    18     6     7    1
    19     6     8   ar
    20     8     9   ar
    21     9    10   ar
    22    10    11   ar
    23    11    12   ar
    24    12    13    1
    25    13    14    1
    26     1    15    1
    27    15    16   ar
    28    16    17   ar
    29    17    18   ar
    30    18    19   ar
    31    19    21    1
    32    21    22    1
    33    19    20   ar
    34    20    23    1
    35    23    24    1
    36    30    31   ar
    37    31    36    1
    38    36    37    1
    39    31    32   ar
    40    32    33   ar
    41    33    38    1
    42    38    39    1
    43    33    28   ar
    44    12     2   ar
    45    20    15   ar
    46    10     4   ar
    47    26    27    1
@<TRIPOS>MOLECULE
*****
 44 47 0 0 0
SMALL
GASTEIGER

@<TRIPOS>ATOM
      1 C         141.5758  141.2801  161.7258 C.3     1  UNL1        0.0809
      2 C         141.2845  140.5746  160.4344 C.ar    1  UNL1        0.0375
      3 C         140.0992  140.9799  159.6092 C.ar    1  UNL1        0.0023
      4 C         139.8078  140.2745  158.3179 C.ar    1  UNL1        0.0181
      5 C         138.6226  140.6798  157.4927 C.ar    1  UNL1        0.0082
      6 C         138.3313  139.9744  156.2014 C.ar    1  UNL1        0.0347
      7 BR        137.1460  140.3797  155.3762 Br      1  UNL1       -0.0490
      8 C         139.2252  138.8637  155.7353 C.ar    1  UNL1        0.0082
      9 C         140.4104  138.4584  156.5605 C.ar    1  UNL1        0.0197
     10 C         140.7017  139.1638  157.8517 C.ar    1  UNL1        0.0844
     11 N         141.8870  138.7585  158.6770 N.ar    1  UNL1       -0.2119
     12 C         142.1783  139.4639  159.9683 C.ar    1  UNL1        0.2211
     13 O         143.3636  139.0586  160.7935 O.3     1  UNL1       -0.4563
     14 C         143.6992  137.6063  160.9615 C.3     1  UNL1        0.2542
     15 C         140.5563  141.2819  162.8260 C.ar    1  UNL1        0.0245
     16 C         139.7714  142.5261  163.1191 C.ar    1  UNL1        0.0200
     17 C         138.7519  142.5280  164.2193 C.ar    1  UNL1        0.1019
     18 N         138.5173  141.2856  165.0265 N.ar    1  UNL1       -0.2076
     19 C         139.3022  140.0414  164.7334 C.ar    1  UNL1        0.2598
     20 C         140.3217  140.0396  163.6331 C.ar    1  UNL1        0.1879
     21 O         139.0675  138.7991  165.5405 O.3     1  UNL1       -0.4541
     22 C         137.9757  138.7677  166.5685 C.3     1  UNL1        0.2543
     23 O         141.1066  138.7954  163.3400 O.3     1  UNL1       -0.4670
     24 C         140.4399  137.6269  162.6766 C.3     1  UNL1        0.2527
     25 C         142.8868  141.9836  161.9168 C.3     1  UNL1        0.1204
     26 O         143.2755  140.9764  162.9582 O.3     1  UNL1       -0.3818
     27 H         144.1586  141.1882  163.2991 H       1  UNL1        0.2107
     28 C         141.0197  144.9887  160.1188 C.ar    1  UNL1        0.1915
     29 C         141.4084  143.9816  161.1601 C.ar    1  UNL1        0.0444
     30 C         142.4980  142.9908  160.8754 C.ar    1  UNL1        0.0588
     31 C         143.1988  143.0072  159.5494 C.ar    1  UNL1        0.2256
     32 N         142.8101  144.0144  158.5080 N.ar    1  UNL1       -0.1743
     33 C         141.7205  145.0052  158.7927 C.ar    1  UNL1        0.2626
     34 C         139.6131  146.3595  161.8196 C.3     1  UNL1        0.2527
     35 O         139.9300  145.9796  160.4036 O.3     1  UNL1       -0.4667
     36 O         144.2885  142.0164  159.2646 O.3     1  UNL1       -0.4562
     37 C         145.0244  142.5436  158.0686 C.3     1  UNL1        0.2542
     38 O         141.3317  146.0123  157.7513 O.3     1  UNL1       -0.4540
     39 C         140.1720  145.7395  156.8401 C.3     1  UNL1        0.2543
     40 C         144.1977  142.6871  162.1078 C.3     1  UNL1        0.0493
     41 C         144.8027  142.7871  163.4768 C.3     1  UNL1        0.0750
     42 N         144.1049  143.5693  164.5498 N.3     1  UNL1       -0.2702
     43 C         143.8884  142.9587  165.9027 C.3     1  UNL1        0.0897
     44 C         143.6236  144.9622  164.2699 C.3     1  UNL1        0.0897
@<TRIPOS>BOND
     1    34    35    1
     2    35    28    1
     3    28    29   ar
     4    29    30   ar
     5    30    25    1
     6    25    26    1
     7    25    40    1
     8    40    41    1
     9    41    42    1
    10    42    43    1
    11    42    44    1
    12    25     1    1
    13     1     2    1
    14     2     3   ar
    15     3     4   ar
    16     4     5   ar
    17     5     6   ar
    18     6     7    1
    19     6     8   ar
    20     8     9   ar
    21     9    10   ar
    22    10    11   ar
    23    11    12   ar
    24    12    13    1
    25    13    14    1
    26     1    15    1
    27    15    16   ar
    28    16    17   ar
    29    17    18   ar
    30    18    19   ar
    31    19    21    1
    32    21    22    1
    33    19    20   ar
    34    20    23    1
    35    23    24    1
    36    30    31   ar
    37    31    36    1
    38    36    37    1
    39    31    32   ar
    40    32    33   ar
    41    33    38    1
    42    38    39    1
    43    33    28   ar
    44    12     2   ar
    45    20    15   ar
    46    10     4   ar
    47    26    27    1
@<TRIPOS>MOLECULE
*****
 44 47 0 0 0
SMALL
GASTEIGER

@<TRIPOS>ATOM
      1 C         139.6978  141.9477  161.1818 C.3     1  UNL1        0.0809
      2 C         139.7030  141.3707  162.5665 C.ar    1  UNL1        0.0375
      3 C         140.7254  141.8263  163.5650 C.ar    1  UNL1        0.0023
      4 C         140.7306  141.2492  164.9496 C.ar    1  UNL1        0.0181
      5 C         141.7530  141.7048  165.9481 C.ar    1  UNL1        0.0082
      6 C         141.7582  141.1278  167.3326 C.ar    1  UNL1        0.0347
      7 BR        142.7807  141.5834  168.3312 Br      1  UNL1       -0.0490
      8 C         140.7410  140.0952  167.7186 C.ar    1  UNL1        0.0082
      9 C         139.7186  139.6396  166.7201 C.ar    1  UNL1        0.0197
     10 C         139.7134  140.2166  165.3356 C.ar    1  UNL1        0.0844
     11 N         138.6910  139.7611  164.3370 N.ar    1  UNL1       -0.2119
     12 C         138.6858  140.3381  162.9525 C.ar    1  UNL1        0.2211
     13 O         137.6633  139.8825  161.9539 O.3     1  UNL1       -0.4563
     14 C         137.5868  138.4356  161.5657 C.3     1  UNL1        0.2542
     15 C         139.5434  141.0452  159.9938 C.ar    1  UNL1        0.0245
     16 C         138.4099  141.2558  159.0341 C.ar    1  UNL1        0.0200
     17 C         138.2556  140.3532  157.8461 C.ar    1  UNL1        0.1019
     18 N         139.2347  139.2400  157.6176 N.ar    1  UNL1       -0.2076
     19 C         140.3682  139.0294  158.5772 C.ar    1  UNL1        0.2598
     20 C         140.5225  139.9320  159.7654 C.ar    1  UNL1        0.1879
     21 O         141.3473  137.9163  158.3488 O.3     1  UNL1       -0.4541
     22 C         142.6227  138.1802  157.6048 C.3     1  UNL1        0.2543
     23 O         141.6560  139.7214  160.7250 O.3     1  UNL1       -0.4670
     24 C         141.6561  138.5294  161.6356 C.3     1  UNL1        0.2527
     25 C         139.8469  143.4273  160.9854 C.3     1  UNL1        0.1204
     26 O         138.4949  143.6449  161.5977 O.3     1  UNL1       -0.3818
     27 H         138.2945  144.5938  161.6099 H       1  UNL1        0.2107
     28 C         143.7086  142.5867  160.6238 C.ar    1  UNL1        0.1915
     29 C         142.3566  142.8043  161.2361 C.ar    1  UNL1        0.0444
     30 C         141.1988  143.2097  160.3730 C.ar    1  UNL1        0.0588
     31 C         141.3929  143.3976  158.8976 C.ar    1  UNL1        0.2256
     32 N         142.7448  143.1800  158.2852 N.ar    1  UNL1       -0.1743
     33 C         143.9027  142.7746  159.1483 C.ar    1  UNL1        0.2626
     34 C         144.6622  141.2009  162.6037 C.3     1  UNL1        0.2527
     35 O         144.8664  142.1813  161.4870 O.3     1  UNL1       -0.4667
     36 O         140.2350  143.8030  158.0344 O.3     1  UNL1       -0.4562
     37 C         140.5009  143.2118  156.6817 C.3     1  UNL1        0.2542
     38 O         145.2546  142.5570  158.5360 O.3     1  UNL1       -0.4540
     39 C         145.3690  142.1361  157.1009 C.3     1  UNL1        0.2543
     40 C         139.9960  144.9069  160.7889 C.3     1  UNL1        0.0493
     41 C         139.8822  145.8345  161.9623 C.3     1  UNL1        0.0750
     42 N         140.3679  145.3985  163.3128 N.3     1  UNL1       -0.2702
     43 C         141.8382  145.3720  163.6085 C.3     1  UNL1        0.0897
     44 C         139.3832  144.9891  164.3678 C.3     1  UNL1        0.0897
@<TRIPOS>BOND
     1    34    35    1
     2    35    28    1
     3    28    29   ar
     4    29    30   ar
     5    30    25    1
     6    25    26    1
     7    25    40    1
     8    40    41    1
     9    41    42    1
    10    42    43    1
    11    42    44    1
    12    25     1    1
    13     1     2    1
    14     2     3   ar
    15     3     4   ar
    16     4     5   ar
    17     5     6   ar
    18     6     7    1
    19     6     8   ar
    20     8     9   ar
    21     9    10   ar
    22    10    11   ar
    23    11    12   ar
    24    12    13    1
    25    13    14    1
    26     1    15    1
    27    15    16   ar
    28    16    17   ar
    29    17    18   ar
    30    18    19   ar
    31    19    21    1
    32    21    22    1
    33    19    20   ar
    34    20    23    1
    35    23    24    1
    36    30    31   ar
    37    31    36    1
    38    36    37    1
    39    31    32   ar
    40    32    33   ar
    41    33    38    1
    42    38    39    1
    43    33    28   ar
    44    12     2   ar
    45    20    15   ar
    46    10     4   ar
    47    26    27    1
@<TRIPOS>MOLECULE
*****
 44 47 0 0 0
SMALL
GASTEIGER

@<TRIPOS>ATOM
      1 C         141.8496  141.0873  162.1536 C.3     1  UNL1        0.0809
      2 C         141.3846  140.3801  160.9152 C.ar    1  UNL1        0.0375
      3 C         142.2582  139.3459  160.2693 C.ar    1  UNL1        0.0023
      4 C         141.7932  138.6386  159.0309 C.ar    1  UNL1        0.0181
      5 C         142.6669  137.6045  158.3850 C.ar    1  UNL1        0.0082
      6 C         142.2019  136.8973  157.1467 C.ar    1  UNL1        0.0347
      7 BR        143.0756  135.8631  156.5007 Br      1  UNL1       -0.0490
      8 C         140.8632  137.2242  156.5542 C.ar    1  UNL1        0.0082
      9 C         139.9895  138.2584  157.2000 C.ar    1  UNL1        0.0197
     10 C         140.4546  138.9656  158.4384 C.ar    1  UNL1        0.0844
     11 N         139.5809  139.9998  159.0843 N.ar    1  UNL1       -0.2119
     12 C         140.0459  140.7070  160.3227 C.ar    1  UNL1        0.2211
     13 O         139.1722  141.7412  160.9686 O.3     1  UNL1       -0.4563
     14 C         137.8682  141.3386  161.5911 C.3     1  UNL1        0.2542
     15 C         140.9747  141.1206  163.3715 C.ar    1  UNL1        0.0245
     16 C         140.5939  142.4350  163.9858 C.ar    1  UNL1        0.0200
     17 C         139.7191  142.4682  165.2038 C.ar    1  UNL1        0.1019
     18 N         139.2249  141.1870  165.8075 N.ar    1  UNL1       -0.2076
     19 C         139.6057  139.8726  165.1932 C.ar    1  UNL1        0.2598
     20 C         140.4806  139.8394  163.9752 C.ar    1  UNL1        0.1879
     21 O         139.1116  138.5914  165.7969 O.3     1  UNL1       -0.4541
     22 C         137.8707  138.5890  166.6395 C.3     1  UNL1        0.2543
     23 O         140.8614  138.5250  163.3609 O.3     1  UNL1       -0.4670
     24 C         139.8377  137.7209  162.6154 C.3     1  UNL1        0.2527
     25 C         143.1895  141.7614  162.1740 C.3     1  UNL1        0.1204
     26 O         143.6936  140.7300  163.1394 O.3     1  UNL1       -0.3818
     27 H         144.6192  140.9186  163.3599 H       1  UNL1        0.2107
     28 C         141.1770  144.8441  160.6919 C.ar    1  UNL1        0.1915
     29 C         141.6812  143.8127  161.6573 C.ar    1  UNL1        0.0444
     30 C         142.6853  142.7928  161.2086 C.ar    1  UNL1        0.0588
     31 C         143.1852  142.8042  159.7944 C.ar    1  UNL1        0.2256
     32 N         142.6811  143.8356  158.8290 N.ar    1  UNL1       -0.1743
     33 C         141.6770  144.8556  159.2777 C.ar    1  UNL1        0.2626
     34 C         139.3132  145.5932  162.3397 C.3     1  UNL1        0.2527
     35 O         140.1729  145.8641  161.1407 O.3     1  UNL1       -0.4667
     36 O         144.1894  141.7842  159.3456 O.3     1  UNL1       -0.4562
     37 C         145.0358  142.4648  158.3110 C.3     1  UNL1        0.2542
     38 O         141.1728  145.8870  158.3123 O.3     1  UNL1       -0.4540
     39 C         141.6995  145.9210  156.9083 C.3     1  UNL1        0.2543
     40 C         144.5293  142.4354  162.1943 C.3     1  UNL1        0.0493
     41 C         145.1213  142.8883  163.4961 C.3     1  UNL1        0.0750
     42 N         144.2623  143.5876  164.5076 N.3     1  UNL1       -0.2702
     43 C         143.7890  144.9875  164.2501 C.3     1  UNL1        0.0897
     44 C         143.8767  142.8871  165.7767 C.3     1  UNL1        0.0897
@<TRIPOS>BOND
     1    34    35    1
     2    35    28    1
     3    28    29   ar
     4    29    30   ar
     5    30    25    1
     6    25    26    1
     7    25    40    1
     8    40    41    1
     9    41    42    1
    10    42    43    1
    11    42    44    1
    12    25     1    1
    13     1     2    1
    14     2     3   ar
    15     3     4   ar
    16     4     5   ar
    17     5     6   ar
    18     6     7    1
    19     6     8   ar
    20     8     9   ar
    21     9    10   ar
    22    10    11   ar
    23    11    12   ar
    24    12    13    1
    25    13    14    1
    26     1    15    1
    27    15    16   ar
    28    16    17   ar
    29    17    18   ar
    30    18    19   ar
    31    19    21    1
    32    21    22    1
    33    19    20   ar
    34    20    23    1
    35    23    24    1
    36    30    31   ar
    37    31    36    1
    38    36    37    1
    39    31    32   ar
    40    32    33   ar
    41    33    38    1
    42    38    39    1
    43    33    28   ar
    44    12     2   ar
    45    20    15   ar
    46    10     4   ar
    47    26    27    1
@<TRIPOS>MOLECULE
*****
 44 47 0 0 0
SMALL
GASTEIGER

@<TRIPOS>ATOM
      1 C         141.0830  142.6149  159.4529 C.3     1  UNL1        0.0809
      2 C         140.3416  142.3568  160.7311 C.ar    1  UNL1        0.0375
      3 C         140.3572  140.9878  161.3439 C.ar    1  UNL1        0.0023
      4 C         139.6158  140.7297  162.6222 C.ar    1  UNL1        0.0181
      5 C         139.6314  139.3607  163.2349 C.ar    1  UNL1        0.0082
      6 C         138.8900  139.1027  164.5131 C.ar    1  UNL1        0.0347
      7 BR        138.9056  137.7336  165.1260 Br      1  UNL1       -0.0490
      8 C         138.1331  140.2137  165.1785 C.ar    1  UNL1        0.0082
      9 C         138.1175  141.5827  164.5658 C.ar    1  UNL1        0.0197
     10 C         138.8589  141.8407  163.2876 C.ar    1  UNL1        0.0844
     11 N         138.8433  143.2098  162.6747 N.ar    1  UNL1       -0.2119
     12 C         139.5847  143.4678  161.3966 C.ar    1  UNL1        0.2211
     13 O         139.5691  144.8368  160.7837 O.3     1  UNL1       -0.4563
     14 C         139.7738  146.0469  161.6461 C.3     1  UNL1        0.2542
     15 C         140.3391  142.6641  158.1513 C.ar    1  UNL1        0.0245
     16 C         139.6636  141.4320  157.6264 C.ar    1  UNL1        0.0200
     17 C         138.9197  141.4812  156.3248 C.ar    1  UNL1        0.1019
     18 N         138.8514  142.7626  155.5480 N.ar    1  UNL1       -0.2076
     19 C         139.5270  143.9947  156.0729 C.ar    1  UNL1        0.2598
     20 C         140.2708  143.9455  157.3745 C.ar    1  UNL1        0.1879
     21 O         139.4587  145.2761  155.2961 O.3     1  UNL1       -0.4541
     22 C         138.1430  145.9726  155.1126 C.3     1  UNL1        0.2543
     23 O         140.9464  145.1776  157.8994 O.3     1  UNL1       -0.4670
     24 C         142.0820  145.7930  157.1366 C.3     1  UNL1        0.2527
     25 C         142.5682  142.8237  159.4764 C.3     1  UNL1        0.1204
     26 O         142.3705  144.1547  160.1391 O.3     1  UNL1       -0.3818
     27 H         143.2335  144.5690  160.2963 H       1  UNL1        0.2107
     28 C         142.7732  138.8975  158.9355 C.ar    1  UNL1        0.1915
     29 C         142.5756  140.2285  159.5983 C.ar    1  UNL1        0.0444
     30 C         142.7658  141.4926  158.8136 C.ar    1  UNL1        0.0588
     31 C         143.1537  141.4257  157.3662 C.ar    1  UNL1        0.2256
     32 N         143.3513  140.0947  156.7034 N.ar    1  UNL1       -0.1743
     33 C         143.1611  138.8305  157.4881 C.ar    1  UNL1        0.2626
     34 C         142.5489  137.6790  161.2192 C.3     1  UNL1        0.2527
     35 O         142.5829  137.6333  159.7202 O.3     1  UNL1       -0.4667
     36 O         143.3439  142.6899  156.5815 O.3     1  UNL1       -0.4562
     37 C         144.6144  142.5073  155.8052 C.3     1  UNL1        0.2542
     38 O         143.3587  137.4995  156.8253 O.3     1  UNL1       -0.4540
     39 C         143.9664  137.4264  155.4559 C.3     1  UNL1        0.2543
     40 C         144.0534  143.0325  159.4998 C.3     1  UNL1        0.0493
     41 C         144.8490  142.6257  160.7046 C.3     1  UNL1        0.0750
     42 N         144.2792  142.8165  162.0791 N.3     1  UNL1       -0.2702
     43 C         144.3255  144.1674  162.7293 C.3     1  UNL1        0.0897
     44 C         143.6632  141.6562  162.8032 C.3     1  UNL1        0.0897
@<TRIPOS>BOND
     1    34    35    1
     2    35    28    1
     3    28    29   ar
     4    29    30   ar
     5    30    25    1
     6    25    26    1
     7    25    40    1
     8    40    41    1
     9    41    42    1
    10    42    43    1
    11    42    44    1
    12    25     1    1
    13     1     2    1
    14     2     3   ar
    15     3     4   ar
    16     4     5   ar
    17     5     6   ar
    18     6     7    1
    19     6     8   ar
    20     8     9   ar
    21     9    10   ar
    22    10    11   ar
    23    11    12   ar
    24    12    13    1
    25    13    14    1
    26     1    15    1
    27    15    16   ar
    28    16    17   ar
    29    17    18   ar
    30    18    19   ar
    31    19    21    1
    32    21    22    1
    33    19    20   ar
    34    20    23    1
    35    23    24    1
    36    30    31   ar
    37    31    36    1
    38    36    37    1
    39    31    32   ar
    40    32    33   ar
    41    33    38    1
    42    38    39    1
    43    33    28   ar
    44    12     2   ar
    45    20    15   ar
    46    10     4   ar
    47    26    27    1
@<TRIPOS>MOLECULE
*****
 44 47 0 0 0
SMALL
GASTEIGER

@<TRIPOS>ATOM
      1 C         141.0460  141.1351  161.1501 C.3     1  UNL1        0.0809
      2 C         140.1594  141.6185  160.0409 C.ar    1  UNL1        0.0375
      3 C         139.7085  140.6672  158.9724 C.ar    1  UNL1        0.0023
      4 C         138.8219  141.1505  157.8632 C.ar    1  UNL1        0.0181
      5 C         138.3710  140.1992  156.7948 C.ar    1  UNL1        0.0082
      6 C         137.4844  140.6826  155.6856 C.ar    1  UNL1        0.0347
      7 BR        137.0334  139.7312  154.6171 Br      1  UNL1       -0.0490
      8 C         137.0487  142.1173  155.6449 C.ar    1  UNL1        0.0082
      9 C         137.4996  143.0687  156.7133 C.ar    1  UNL1        0.0197
     10 C         138.3862  142.5853  157.8225 C.ar    1  UNL1        0.0844
     11 N         138.8371  143.5367  158.8910 N.ar    1  UNL1       -0.2119
     12 C         139.7237  143.0533  160.0001 C.ar    1  UNL1        0.2211
     13 O         140.1746  144.0047  161.0686 O.3     1  UNL1       -0.4563
     14 C         140.3161  145.4659  160.7607 C.3     1  UNL1        0.2542
     15 C         140.5633  140.0651  162.0838 C.ar    1  UNL1        0.0245
     16 C         141.0751  138.6619  161.9452 C.ar    1  UNL1        0.0200
     17 C         140.5924  137.5919  162.8790 C.ar    1  UNL1        0.1019
     18 N         139.5979  137.9250  163.9514 N.ar    1  UNL1       -0.2076
     19 C         139.0861  139.3281  164.0900 C.ar    1  UNL1        0.2598
     20 C         139.5688  140.3982  163.1562 C.ar    1  UNL1        0.1879
     21 O         138.0916  139.6612  165.1624 O.3     1  UNL1       -0.4541
     22 C         138.0358  138.8383  166.4153 C.3     1  UNL1        0.2543
     23 O         139.0571  141.8014  163.2948 O.3     1  UNL1       -0.4670
     24 C         137.6551  142.1331  162.8770 C.3     1  UNL1        0.2527
     25 C         142.4153  141.7219  161.3255 C.3     1  UNL1        0.1204
     26 O         142.0398  142.1868  162.7013 O.3     1  UNL1       -0.3818
     27 H         142.7937  142.6448  163.1048 H       1  UNL1        0.2107
     28 C         143.2567  139.3245  158.2768 C.ar    1  UNL1        0.1915
     29 C         142.8813  139.7895  159.6526 C.ar    1  UNL1        0.0444
     30 C         142.7908  141.2569  159.9497 C.ar    1  UNL1        0.0588
     31 C         143.0757  142.2595  158.8710 C.ar    1  UNL1        0.2256
     32 N         143.4512  141.7945  157.4952 N.ar    1  UNL1       -0.1743
     33 C         143.5417  140.3271  157.1981 C.ar    1  UNL1        0.2626
     34 C         142.2264  137.1669  157.2603 C.3     1  UNL1        0.2527
     35 O         143.3472  137.8570  157.9797 O.3     1  UNL1       -0.4667
     36 O         142.9852  143.7270  159.1680 O.3     1  UNL1       -0.4562
     37 C         142.4987  144.3750  157.9057 C.3     1  UNL1        0.2542
     38 O         143.9172  139.8621  155.8223 O.3     1  UNL1       -0.4540
     39 C         145.3586  139.8307  155.4086 C.3     1  UNL1        0.2543
     40 C         143.7846  142.3086  161.5009 C.3     1  UNL1        0.0493
     41 C         144.0596  143.2432  162.6416 C.3     1  UNL1        0.0750
     42 N         144.7558  142.7408  163.8716 N.3     1  UNL1       -0.2702
     43 C         145.7385  141.6122  163.7690 C.3     1  UNL1        0.0897
     44 C         144.4693  143.3670  165.2042 C.3     1  UNL1        0.0897
@<TRIPOS>BOND
     1    34    35    1
     2    35    28    1
     3    28    29   ar
     4    29    30   ar
     5    30    25    1
     6    25    26    1
     7    25    40    1
     8    40    41    1
     9    41    42    1
    10    42    43    1
    11    42    44    1
    12    25     1    1
    13     1     2    1
    14     2     3   ar
    15     3     4   ar
    16     4     5   ar
    17     5     6   ar
    18     6     7    1
    19     6     8   ar
    20     8     9   ar
    21     9    10   ar
    22    10    11   ar
    23    11    12   ar
    24    12    13    1
    25    13    14    1
    26     1    15    1
    27    15    16   ar
    28    16    17   ar
    29    17    18   ar
    30    18    19   ar
    31    19    21    1
    32    21    22    1
    33    19    20   ar
    34    20    23    1
    35    23    24    1
    36    30    31   ar
    37    31    36    1
    38    36    37    1
    39    31    32   ar
    40    32    33   ar
    41    33    38    1
    42    38    39    1
    43    33    28   ar
    44    12     2   ar
    45    20    15   ar
    46    10     4   ar
    47    26    27    1
@<TRIPOS>MOLECULE
*****
 44 47 0 0 0
SMALL
GASTEIGER

@<TRIPOS>ATOM
      1 C         141.7119  141.3260  158.9940 C.3     1  UNL1        0.0809
      2 C         141.4589  140.3089  160.0672 C.ar    1  UNL1        0.0375
      3 C         142.2624  140.3390  161.3334 C.ar    1  UNL1        0.0023
      4 C         142.0094  139.3219  162.4066 C.ar    1  UNL1        0.0181
      5 C         142.8129  139.3519  163.6728 C.ar    1  UNL1        0.0082
      6 C         142.5599  138.3348  164.7459 C.ar    1  UNL1        0.0347
      7 BR        143.3634  138.3649  166.0122 Br      1  UNL1       -0.0490
      8 C         141.5034  137.2877  164.5527 C.ar    1  UNL1        0.0082
      9 C         140.7000  137.2576  163.2864 C.ar    1  UNL1        0.0197
     10 C         140.9530  138.2747  162.2133 C.ar    1  UNL1        0.0844
     11 N         140.1495  138.2446  160.9470 N.ar    1  UNL1       -0.2119
     12 C         140.4025  139.2617  159.8739 C.ar    1  UNL1        0.2211
     13 O         139.5990  139.2317  158.6076 O.3     1  UNL1       -0.4563
     14 C         139.5796  137.9937  157.7608 C.3     1  UNL1        0.2542
     15 C         143.0552  141.3981  158.3306 C.ar    1  UNL1        0.0245
     16 C         143.9729  142.5492  158.6181 C.ar    1  UNL1        0.0200
     17 C         145.3163  142.6212  157.9546 C.ar    1  UNL1        0.1019
     18 N         145.7419  141.5421  157.0037 N.ar    1  UNL1       -0.2076
     19 C         144.8242  140.3909  156.7162 C.ar    1  UNL1        0.2598
     20 C         143.4808  140.3189  157.3797 C.ar    1  UNL1        0.1879
     21 O         145.2498  139.3118  155.7652 O.3     1  UNL1       -0.4541
     22 C         145.1513  139.5348  154.2852 C.3     1  UNL1        0.2543
     23 O         142.5631  139.1678  157.0922 O.3     1  UNL1       -0.4670
     24 C         142.9029  137.7948  157.5919 C.3     1  UNL1        0.2527
     25 C         140.6214  142.2711  158.5844 C.3     1  UNL1        0.1204
     26 O         140.6329  141.6858  157.2034 O.3     1  UNL1       -0.3818
     27 H         139.9706  142.1358  156.6560 H       1  UNL1        0.2107
     28 C         141.7541  144.2736  161.8182 C.ar    1  UNL1        0.1915
     29 C         141.7656  143.6883  160.4371 C.ar    1  UNL1        0.0444
     30 C         140.6099  142.8564  159.9655 C.ar    1  UNL1        0.0588
     31 C         139.4428  142.6099  160.8748 C.ar    1  UNL1        0.2256
     32 N         139.4313  143.1952  162.2559 N.ar    1  UNL1       -0.1743
     33 C         140.5869  144.0271  162.7275 C.ar    1  UNL1        0.2626
     34 C         144.0761  144.4519  162.9700 C.3     1  UNL1        0.2527
     35 O         142.9098  145.1055  162.2898 O.3     1  UNL1       -0.4667
     36 O         138.2871  141.7780  160.4032 O.3     1  UNL1       -0.4562
     37 C         137.7853  141.0446  161.6116 C.3     1  UNL1        0.2542
     38 O         140.5754  144.6124  164.1086 O.3     1  UNL1       -0.4540
     39 C         139.2840  144.7310  164.8622 C.3     1  UNL1        0.2543
     40 C         139.5310  143.2162  158.1748 C.3     1  UNL1        0.0493
     41 C         139.3652  143.5896  156.7315 C.3     1  UNL1        0.0750
     42 N         138.0317  143.4288  156.0636 N.3     1  UNL1       -0.2702
     43 C         137.5980  144.4046  155.0102 C.3     1  UNL1        0.0897
     44 C         137.1320  142.2922  156.4492 C.3     1  UNL1        0.0897
@<TRIPOS>BOND
     1    34    35    1
     2    35    28    1
     3    28    29   ar
     4    29    30   ar
     5    30    25    1
     6    25    26    1
     7    25    40    1
     8    40    41    1
     9    41    42    1
    10    42    43    1
    11    42    44    1
    12    25     1    1
    13     1     2    1
    14     2     3   ar
    15     3     4   ar
    16     4     5   ar
    17     5     6   ar
    18     6     7    1
    19     6     8   ar
    20     8     9   ar
    21     9    10   ar
    22    10    11   ar
    23    11    12   ar
    24    12    13    1
    25    13    14    1
    26     1    15    1
    27    15    16   ar
    28    16    17   ar
    29    17    18   ar
    30    18    19   ar
    31    19    21    1
    32    21    22    1
    33    19    20   ar
    34    20    23    1
    35    23    24    1
    36    30    31   ar
    37    31    36    1
    38    36    37    1
    39    31    32   ar
    40    32    33   ar
    41    33    38    1
    42    38    39    1
    43    33    28   ar
    44    12     2   ar
    45    20    15   ar
    46    10     4   ar
    47    26    27    1
