@<TRIPOS>MOLECULE
*****
 33 37 0 0 0
SMALL
GASTEIGER

@<TRIPOS>ATOM
      1 C         138.6167  139.0419  164.8463 C.ar    1  UNL1        0.0807
      2 C         138.1085  140.1169  163.9319 C.ar    1  UNL1        0.0026
      3 C         138.2835  139.9841  162.4481 C.ar    1  UNL1       -0.0196
      4 C         138.9668  138.7763  161.8786 C.ar    1  UNL1       -0.0019
      5 C         139.4751  137.7013  162.7930 C.ar    1  UNL1        0.0295
      6 C         139.3000  137.8341  164.2768 C.ar    1  UNL1        0.1444
      7 F         139.8082  136.7590  165.1911 F       1  UNL1       -0.2040
      8 O         137.2293  138.5955  166.9971 O.2     1  UNL1       -0.2698
      9 C         138.4417  139.1746  166.3300 C.2     1  UNL1        0.2512
     10 N         139.4790  139.8864  167.1470 N.am    1  UNL1       -0.2759
     11 C         139.3041  140.0191  168.6308 C.3     1  UNL1        0.0950
     12 C         140.3415  140.7309  169.4476 C.3     1  UNL1        0.0360
     13 C         141.5538  141.3100  168.7806 C.3     1  UNL1        0.0452
     14 C         142.8115  141.9368  168.2560 C.3     1  UNL1        0.0160
     15 C         143.5506  142.5341  169.4166 C.3     1  UNL1        0.0184
     16 C         142.7497  142.2765  170.6584 C.3     1  UNL1        0.0685
     17 N         141.5155  141.5199  170.2653 N.3     1  UNL1       -0.2994
     18 C         141.7288  141.1772  167.2967 C.3     1  UNL1        0.0360
     19 C         140.6914  140.4654  166.4799 C.3     1  UNL1        0.0950
     20 H         140.6855  142.0563  170.5178 H       1  UNL1        0.1232
     21 C         137.7753  141.0592  161.5338 C.3     1  UNL1        0.0549
     22 C         138.3251  142.4511  161.6344 C.3     1  UNL1        0.1295
     23 C         137.7442  143.4173  162.6239 C.2     1  UNL1        0.0853
     24 N         138.2940  144.8093  162.7245 N.am    1  UNL1       -0.1757
     25 C         139.4247  145.2351  161.8356 C.2     1  UNL1        0.2847
     26 O         139.9745  146.6271  161.9362 O.2     1  UNL1       -0.2664
     27 C         140.0057  144.2689  160.8461 C.ar    1  UNL1        0.1177
     28 C         141.1154  144.4024  159.8458 C.ar    1  UNL1        0.0356
     29 C         141.2515  143.0929  159.1270 C.ar    1  UNL1        0.0859
     30 CL        142.2397  142.7809  158.0425 Cl      1  UNL1       -0.0798
     31 C         140.2258  142.1501  159.6830 C.ar    1  UNL1        0.1299
     32 CL        140.0083  140.7299  159.2522 Cl      1  UNL1       -0.0622
     33 N         139.4558  142.8769  160.7455 N.ar    1  UNL1       -0.3105
@<TRIPOS>BOND
     1     8     9    2
     2     9     1    1
     3     1     2   ar
     4     2     3   ar
     5     3    21    1
     6    21    22    1
     7    22    23    1
     8    23    24    2
     9    24    25    1
    10    25    26    2
    11    25    27    1
    12    27    28   ar
    13    28    29   ar
    14    29    30    1
    15    29    31   ar
    16    31    32    1
    17    31    33   ar
    18     3     4   ar
    19     4     5   ar
    20     5     6   ar
    21     6     7    1
    22     9    10   am
    23    10    11    1
    24    11    12    1
    25    12    13    1
    26    13    14    1
    27    14    15    1
    28    15    16    1
    29    16    17    1
    30    13    18    1
    31    18    19    1
    32     6     1   ar
    33    19    10    1
    34    33    22    1
    35    17    13    1
    36    33    27   ar
    37    17    20    1
@<TRIPOS>MOLECULE
*****
 33 37 0 0 0
SMALL
GASTEIGER

@<TRIPOS>ATOM
      1 C         138.3428  139.2299  165.4337 C.ar    1  UNL1        0.0807
      2 C         137.9395  140.4938  164.7339 C.ar    1  UNL1        0.0026
      3 C         138.0136  140.5794  163.2382 C.ar    1  UNL1       -0.0196
      4 C         138.4910  139.4010  162.4422 C.ar    1  UNL1       -0.0019
      5 C         138.8943  138.1370  163.1420 C.ar    1  UNL1        0.0295
      6 C         138.8202  138.0515  164.6378 C.ar    1  UNL1        0.1444
      7 F         139.2235  136.7875  165.3376 F       1  UNL1       -0.2040
      8 O         137.2316  138.2781  167.5806 O.2     1  UNL1       -0.2698
      9 C         138.2688  139.1442  166.9294 C.2     1  UNL1        0.2512
     10 N         139.2319  139.9248  167.7739 N.am    1  UNL1       -0.2759
     11 C         139.1579  139.8392  169.2696 C.3     1  UNL1        0.0950
     12 C         140.1210  140.6198  170.1141 C.3     1  UNL1        0.0360
     13 C         141.1581  141.4859  169.4628 C.3     1  UNL1        0.0452
     14 C         142.2432  142.3893  168.9563 C.3     1  UNL1        0.0160
     15 C         142.9609  142.9618  170.1425 C.3     1  UNL1        0.0184
     16 C         142.3194  142.4123  171.3821 C.3     1  UNL1        0.0685
     17 N         141.2052  141.5002  170.9620 N.3     1  UNL1       -0.2994
     18 C         141.2321  141.5715  167.9671 C.3     1  UNL1        0.0360
     19 C         140.2690  140.7909  167.1226 C.3     1  UNL1        0.0950
     20 H         140.3190  141.8427  171.3329 H       1  UNL1        0.1232
     21 C         137.6103  141.8434  162.5384 C.3     1  UNL1        0.0549
     22 C         138.4756  142.4072  161.4506 C.3     1  UNL1        0.1295
     23 C         138.2080  142.0503  160.0184 C.2     1  UNL1        0.0853
     24 N         139.0732  142.6142  158.9305 N.am    1  UNL1       -0.1757
     25 C         140.2062  143.5350  159.2748 C.2     1  UNL1        0.2847
     26 O         141.0715  144.0988  158.1870 O.2     1  UNL1       -0.2664
     27 C         140.4739  143.8919  160.7070 C.ar    1  UNL1        0.1177
     28 C         141.5104  144.7677  161.3463 C.ar    1  UNL1        0.0356
     29 C         141.2857  144.7451  162.8291 C.ar    1  UNL1        0.0859
     30 CL        142.0943  145.4828  163.8548 Cl      1  UNL1       -0.0798
     31 C         140.1103  143.8553  163.1064 C.ar    1  UNL1        0.1299
     32 CL        139.5373  143.5471  164.4579 Cl      1  UNL1       -0.0622
     33 N         139.6086  143.3280  161.7948 N.ar    1  UNL1       -0.3105
@<TRIPOS>BOND
     1     8     9    2
     2     9     1    1
     3     1     2   ar
     4     2     3   ar
     5     3    21    1
     6    21    22    1
     7    22    23    1
     8    23    24    2
     9    24    25    1
    10    25    26    2
    11    25    27    1
    12    27    28   ar
    13    28    29   ar
    14    29    30    1
    15    29    31   ar
    16    31    32    1
    17    31    33   ar
    18     3     4   ar
    19     4     5   ar
    20     5     6   ar
    21     6     7    1
    22     9    10   am
    23    10    11    1
    24    11    12    1
    25    12    13    1
    26    13    14    1
    27    14    15    1
    28    15    16    1
    29    16    17    1
    30    13    18    1
    31    18    19    1
    32     6     1   ar
    33    19    10    1
    34    33    22    1
    35    17    13    1
    36    33    27   ar
    37    17    20    1
@<TRIPOS>MOLECULE
*****
 33 37 0 0 0
SMALL
GASTEIGER

@<TRIPOS>ATOM
      1 C         140.6175  139.0663  163.8568 C.ar    1  UNL1        0.0807
      2 C         139.9034  140.1176  163.0601 C.ar    1  UNL1        0.0026
      3 C         138.6656  139.7636  162.2904 C.ar    1  UNL1       -0.0196
      4 C         138.1418  138.3583  162.3174 C.ar    1  UNL1       -0.0019
      5 C         138.8559  137.3069  163.1141 C.ar    1  UNL1        0.0295
      6 C         140.0937  137.6609  163.8838 C.ar    1  UNL1        0.1444
      7 F         140.8078  136.6096  164.6805 F       1  UNL1       -0.2040
      8 O         143.1870  138.8824  164.1939 O.2     1  UNL1       -0.2698
      9 C         141.8553  139.4202  164.6266 C.2     1  UNL1        0.2512
     10 N         141.7614  140.3119  165.8291 N.am    1  UNL1       -0.2759
     11 C         142.9991  140.6658  166.5989 C.3     1  UNL1        0.0950
     12 C         142.9051  141.5575  167.8015 C.3     1  UNL1        0.0360
     13 C         141.5734  142.0953  168.2342 C.3     1  UNL1        0.0452
     14 C         140.3179  142.7052  168.7835 C.3     1  UNL1        0.0160
     15 C         140.6871  143.5205  169.9873 C.3     1  UNL1        0.0184
     16 C         142.1706  143.4144  170.1819 C.3     1  UNL1        0.0685
     17 N         142.7184  142.5335  169.0984 N.3     1  UNL1       -0.2994
     18 C         140.3356  141.7413  167.4643 C.3     1  UNL1        0.0360
     19 C         140.4296  140.8496  166.2618 C.3     1  UNL1        0.0950
     20 H         143.1722  141.7186  169.5112 H       1  UNL1        0.1232
     21 C         137.9515  140.8150  161.4937 C.3     1  UNL1        0.0549
     22 C         138.6538  142.0914  161.1366 C.3     1  UNL1        0.1295
     23 C         139.2073  142.2819  159.7555 C.2     1  UNL1        0.0853
     24 N         139.9096  143.5583  159.3983 N.am    1  UNL1       -0.1757
     25 C         140.0584  144.6443  160.4222 C.2     1  UNL1        0.2847
     26 O         140.7607  145.9207  160.0651 O.2     1  UNL1       -0.2664
     27 C         139.5049  144.4538  161.8034 C.ar    1  UNL1        0.1177
     28 C         139.4998  145.3401  163.0136 C.ar    1  UNL1        0.0356
     29 C         138.7943  144.6113  164.1187 C.ar    1  UNL1        0.0859
     30 CL        138.5606  145.1284  165.5072 Cl      1  UNL1       -0.0798
     31 C         138.3634  143.2747  163.5915 C.ar    1  UNL1        0.1299
     32 CL        137.6233  142.2206  164.3602 Cl      1  UNL1       -0.0622
     33 N         138.8026  143.1774  162.1605 N.ar    1  UNL1       -0.3105
@<TRIPOS>BOND
     1     8     9    2
     2     9     1    1
     3     1     2   ar
     4     2     3   ar
     5     3    21    1
     6    21    22    1
     7    22    23    1
     8    23    24    2
     9    24    25    1
    10    25    26    2
    11    25    27    1
    12    27    28   ar
    13    28    29   ar
    14    29    30    1
    15    29    31   ar
    16    31    32    1
    17    31    33   ar
    18     3     4   ar
    19     4     5   ar
    20     5     6   ar
    21     6     7    1
    22     9    10   am
    23    10    11    1
    24    11    12    1
    25    12    13    1
    26    13    14    1
    27    14    15    1
    28    15    16    1
    29    16    17    1
    30    13    18    1
    31    18    19    1
    32     6     1   ar
    33    19    10    1
    34    33    22    1
    35    17    13    1
    36    33    27   ar
    37    17    20    1
@<TRIPOS>MOLECULE
*****
 33 37 0 0 0
SMALL
GASTEIGER

@<TRIPOS>ATOM
      1 C         140.6823  139.0352  162.6138 C.ar    1  UNL1        0.0807
      2 C         140.9472  140.2956  161.8449 C.ar    1  UNL1        0.0026
      3 C         142.1070  140.3657  160.8963 C.ar    1  UNL1       -0.0196
      4 C         143.0019  139.1753  160.7166 C.ar    1  UNL1       -0.0019
      5 C         142.7370  137.9149  161.4855 C.ar    1  UNL1        0.0295
      6 C         141.5772  137.8449  162.4341 C.ar    1  UNL1        0.1444
      7 F         141.3122  136.5845  163.2030 F       1  UNL1       -0.2040
      8 O         138.1608  138.5919  163.0560 O.2     1  UNL1       -0.2698
      9 C         139.5225  138.9650  163.5624 C.2     1  UNL1        0.2512
     10 N         139.7243  139.2680  165.0176 N.am    1  UNL1       -0.2759
     11 C         138.5646  139.1979  165.9663 C.3     1  UNL1        0.0950
     12 C         138.7666  139.5009  167.4214 C.3     1  UNL1        0.0360
     13 C         140.1283  139.8740  167.9279 C.3     1  UNL1        0.0452
     14 C         141.4247  140.2592  168.5766 C.3     1  UNL1        0.0160
     15 C         141.1669  140.4683  170.0394 C.3     1  UNL1        0.0184
     16 C         139.7111  140.2123  170.2947 C.3     1  UNL1        0.0685
     17 N         139.0692  139.8451  168.9897 N.3     1  UNL1       -0.2994
     18 C         141.2880  139.9442  166.9792 C.3     1  UNL1        0.0360
     19 C         141.0860  139.6412  165.5240 C.3     1  UNL1        0.0950
     20 H         138.3346  140.5159  168.7643 H       1  UNL1        0.1232
     21 C         142.3719  141.6261  160.1274 C.3     1  UNL1        0.0549
     22 C         141.6994  142.9052  160.5293 C.3     1  UNL1        0.1295
     23 C         140.5605  143.4420  159.7141 C.2     1  UNL1        0.0853
     24 N         139.8879  144.7212  160.1159 N.am    1  UNL1       -0.1757
     25 C         140.3542  145.4634  161.3331 C.2     1  UNL1        0.2847
     26 O         139.6817  146.7426  161.7350 O.2     1  UNL1       -0.2664
     27 C         141.4932  144.9266  162.1484 C.ar    1  UNL1        0.1177
     28 C         142.1667  145.4347  163.3886 C.ar    1  UNL1        0.0356
     29 C         143.2556  144.4696  163.7532 C.ar    1  UNL1        0.0859
     30 CL        144.1824  144.5882  164.9267 Cl      1  UNL1       -0.0798
     31 C         143.2550  143.3650  162.7384 C.ar    1  UNL1        0.1299
     32 CL        144.1810  142.1852  162.7188 Cl      1  UNL1       -0.0622
     33 N         142.1657  143.6475  161.7465 N.ar    1  UNL1       -0.3105
@<TRIPOS>BOND
     1     8     9    2
     2     9     1    1
     3     1     2   ar
     4     2     3   ar
     5     3    21    1
     6    21    22    1
     7    22    23    1
     8    23    24    2
     9    24    25    1
    10    25    26    2
    11    25    27    1
    12    27    28   ar
    13    28    29   ar
    14    29    30    1
    15    29    31   ar
    16    31    32    1
    17    31    33   ar
    18     3     4   ar
    19     4     5   ar
    20     5     6   ar
    21     6     7    1
    22     9    10   am
    23    10    11    1
    24    11    12    1
    25    12    13    1
    26    13    14    1
    27    14    15    1
    28    15    16    1
    29    16    17    1
    30    13    18    1
    31    18    19    1
    32     6     1   ar
    33    19    10    1
    34    33    22    1
    35    17    13    1
    36    33    27   ar
    37    17    20    1
@<TRIPOS>MOLECULE
*****
 33 37 0 0 0
SMALL
GASTEIGER

@<TRIPOS>ATOM
      1 C         140.6112  139.1721  163.7845 C.ar    1  UNL1        0.0807
      2 C         140.1738  140.2113  162.7952 C.ar    1  UNL1        0.0026
      3 C         138.9626  139.9729  161.9431 C.ar    1  UNL1       -0.0196
      4 C         138.1888  138.6952  162.0802 C.ar    1  UNL1       -0.0019
      5 C         138.6262  137.6560  163.0694 C.ar    1  UNL1        0.0295
      6 C         139.8374  137.8944  163.9216 C.ar    1  UNL1        0.1444
      7 F         140.2748  136.8552  164.9108 F       1  UNL1       -0.2040
      8 O         143.1213  138.7413  164.2978 O.2     1  UNL1       -0.2698
      9 C         141.8223  139.4105  164.6367 C.2     1  UNL1        0.2512
     10 N         141.7345  140.3180  165.8278 N.am    1  UNL1       -0.2759
     11 C         142.9456  140.5564  166.6800 C.3     1  UNL1        0.0950
     12 C         142.8577  141.4639  167.8711 C.3     1  UNL1        0.0360
     13 C         141.5587  142.1330  168.2100 C.3     1  UNL1        0.0452
     14 C         140.3346  142.8676  168.6703 C.3     1  UNL1        0.0160
     15 C         140.6988  143.6538  169.8946 C.3     1  UNL1        0.0184
     16 C         142.1481  143.4052  170.1911 C.3     1  UNL1        0.0685
     17 N         142.6795  142.4652  169.1499 N.3     1  UNL1       -0.2994
     18 C         140.3476  141.8946  167.3577 C.3     1  UNL1        0.0360
     19 C         140.4355  140.9871  166.1666 C.3     1  UNL1        0.0950
     20 H         143.0221  141.6137  169.5947 H       1  UNL1        0.1232
     21 C         138.5252  141.0122  160.9538 C.3     1  UNL1        0.0549
     22 C         138.8403  142.4584  161.1966 C.3     1  UNL1        0.1295
     23 C         137.9952  143.2621  162.1399 C.2     1  UNL1        0.0853
     24 N         138.3102  144.7084  162.3828 N.am    1  UNL1       -0.1757
     25 C         139.4705  145.3511  161.6823 C.2     1  UNL1        0.2847
     26 O         139.7857  146.7973  161.9251 O.2     1  UNL1       -0.2664
     27 C         140.3158  144.5474  160.7390 C.ar    1  UNL1        0.1177
     28 C         141.5144  144.9059  159.9114 C.ar    1  UNL1        0.0356
     29 C         141.9400  143.6812  159.1572 C.ar    1  UNL1        0.0859
     30 CL        143.0979  143.5882  158.2081 Cl      1  UNL1       -0.0798
     31 C         141.0045  142.5657  159.5185 C.ar    1  UNL1        0.1299
     32 CL        141.0626  141.1615  158.9943 Cl      1  UNL1       -0.0622
     33 N         140.0006  143.1011  160.4962 N.ar    1  UNL1       -0.3105
@<TRIPOS>BOND
     1     8     9    2
     2     9     1    1
     3     1     2   ar
     4     2     3   ar
     5     3    21    1
     6    21    22    1
     7    22    23    1
     8    23    24    2
     9    24    25    1
    10    25    26    2
    11    25    27    1
    12    27    28   ar
    13    28    29   ar
    14    29    30    1
    15    29    31   ar
    16    31    32    1
    17    31    33   ar
    18     3     4   ar
    19     4     5   ar
    20     5     6   ar
    21     6     7    1
    22     9    10   am
    23    10    11    1
    24    11    12    1
    25    12    13    1
    26    13    14    1
    27    14    15    1
    28    15    16    1
    29    16    17    1
    30    13    18    1
    31    18    19    1
    32     6     1   ar
    33    19    10    1
    34    33    22    1
    35    17    13    1
    36    33    27   ar
    37    17    20    1
@<TRIPOS>MOLECULE
*****
 33 37 0 0 0
SMALL
GASTEIGER

@<TRIPOS>ATOM
      1 C         138.8598  142.7276  162.7800 C.ar    1  UNL1        0.0807
      2 C         139.7756  141.8220  163.5487 C.ar    1  UNL1        0.0026
      3 C         140.1969  142.1877  164.9411 C.ar    1  UNL1       -0.0196
      4 C         139.7022  143.4591  165.5648 C.ar    1  UNL1       -0.0019
      5 C         138.7864  144.3647  164.7960 C.ar    1  UNL1        0.0295
      6 C         138.3651  143.9990  163.4036 C.ar    1  UNL1        0.1444
      7 F         137.4493  144.9046  162.6349 F       1  UNL1       -0.2040
      8 O         137.4086  141.2930  161.1719 O.2     1  UNL1       -0.2698
      9 C         138.4385  142.3620  161.3876 C.2     1  UNL1        0.2512
     10 N         139.0472  143.0653  160.2108 N.am    1  UNL1       -0.2759
     11 C         138.6259  142.6998  158.8183 C.3     1  UNL1        0.0950
     12 C         139.2346  143.4032  157.6416 C.3     1  UNL1        0.0360
     13 C         140.2646  144.4721  157.8573 C.3     1  UNL1        0.0452
     14 C         141.3001  145.5556  157.9168 C.3     1  UNL1        0.0160
     15 C         141.6201  145.9686  156.5107 C.3     1  UNL1        0.0184
     16 C         140.7823  145.1404  155.5822 C.3     1  UNL1        0.0685
     17 N         139.9445  144.2155  156.4145 N.3     1  UNL1       -0.2994
     18 C         140.6858  144.8377  159.2497 C.3     1  UNL1        0.0360
     19 C         140.0771  144.1343  160.4265 C.3     1  UNL1        0.0950
     20 H         140.1603  143.2468  156.1790 H       1  UNL1        0.1232
     21 C         141.1127  141.2820  165.7099 C.3     1  UNL1        0.0549
     22 C         140.7662  140.8803  167.1129 C.3     1  UNL1        0.1295
     23 C         139.5170  140.0945  167.3812 C.2     1  UNL1        0.0853
     24 N         139.1704  139.6928  168.7843 N.am    1  UNL1       -0.1757
     25 C         140.0730  140.0769  169.9190 C.2     1  UNL1        0.2847
     26 O         139.7265  139.6752  171.3221 O.2     1  UNL1       -0.2664
     27 C         141.3223  140.8627  169.6507 C.ar    1  UNL1        0.1177
     28 C         142.3968  141.3810  170.5601 C.ar    1  UNL1        0.0356
     29 C         143.4074  142.1030  169.7190 C.ar    1  UNL1        0.0859
     30 CL        144.6498  142.7784  170.2192 Cl      1  UNL1       -0.0798
     31 C         142.9575  142.0309  168.2899 C.ar    1  UNL1        0.1299
     32 CL        143.6710  142.6217  167.1101 Cl      1  UNL1       -0.0622
     33 N         141.6688  141.2644  168.2477 N.ar    1  UNL1       -0.3105
@<TRIPOS>BOND
     1     8     9    2
     2     9     1    1
     3     1     2   ar
     4     2     3   ar
     5     3    21    1
     6    21    22    1
     7    22    23    1
     8    23    24    2
     9    24    25    1
    10    25    26    2
    11    25    27    1
    12    27    28   ar
    13    28    29   ar
    14    29    30    1
    15    29    31   ar
    16    31    32    1
    17    31    33   ar
    18     3     4   ar
    19     4     5   ar
    20     5     6   ar
    21     6     7    1
    22     9    10   am
    23    10    11    1
    24    11    12    1
    25    12    13    1
    26    13    14    1
    27    14    15    1
    28    15    16    1
    29    16    17    1
    30    13    18    1
    31    18    19    1
    32     6     1   ar
    33    19    10    1
    34    33    22    1
    35    17    13    1
    36    33    27   ar
    37    17    20    1
@<TRIPOS>MOLECULE
*****
 33 37 0 0 0
SMALL
GASTEIGER

@<TRIPOS>ATOM
      1 C         139.4079  139.5204  165.9547 C.ar    1  UNL1        0.0807
      2 C         140.5173  140.5138  165.7740 C.ar    1  UNL1        0.0026
      3 C         140.9733  141.3479  166.9343 C.ar    1  UNL1       -0.0196
      4 C         140.3201  141.1887  168.2751 C.ar    1  UNL1       -0.0019
      5 C         139.2108  140.1953  168.4558 C.ar    1  UNL1        0.0295
      6 C         138.7547  139.3612  167.2956 C.ar    1  UNL1        0.1444
      7 F         137.6454  138.3678  167.4762 F       1  UNL1       -0.2040
      8 O         138.6798  137.2233  164.9836 O.2     1  UNL1       -0.2698
      9 C         138.9518  138.6862  164.7945 C.2     1  UNL1        0.2512
     10 N         138.7676  139.3150  163.4451 N.am    1  UNL1       -0.2759
     11 C         138.3115  138.4809  162.2849 C.3     1  UNL1        0.0950
     12 C         138.1273  139.1098  160.9356 C.3     1  UNL1        0.0360
     13 C         138.3994  140.5727  160.7465 C.3     1  UNL1        0.0452
     14 C         138.6313  142.0153  160.4070 C.3     1  UNL1        0.0160
     15 C         138.3262  142.2034  158.9505 C.3     1  UNL1        0.0184
     16 C         137.9058  140.8772  158.3897 C.3     1  UNL1        0.0685
     17 N         137.9510  139.8693  159.4998 N.3     1  UNL1       -0.2994
     18 C         138.8555  141.4068  161.9067 C.3     1  UNL1        0.0360
     19 C         139.0396  140.7780  163.2560 C.3     1  UNL1        0.0950
     20 H         138.6093  139.1261  159.2659 H       1  UNL1        0.1232
     21 C         142.0827  142.3412  166.7536 C.3     1  UNL1        0.0549
     22 C         142.7006  142.5377  165.4010 C.3     1  UNL1        0.1295
     23 C         144.0535  141.9621  165.1037 C.2     1  UNL1        0.0853
     24 N         144.6715  142.1586  163.7511 N.am    1  UNL1       -0.1757
     25 C         143.9366  142.9307  162.6958 C.2     1  UNL1        0.2847
     26 O         144.5545  143.1271  161.3432 O.2     1  UNL1       -0.2664
     27 C         142.5836  143.5063  162.9931 C.ar    1  UNL1        0.1177
     28 C         141.6282  144.3070  162.1588 C.ar    1  UNL1        0.0356
     29 C         140.4198  144.6054  162.9958 C.ar    1  UNL1        0.0859
     30 CL        139.2143  145.3835  162.5582 Cl      1  UNL1       -0.0798
     31 C         140.6283  143.9891  164.3474 C.ar    1  UNL1        0.1299
     32 CL        139.6681  144.0427  165.4985 Cl      1  UNL1       -0.0622
     33 N         141.9657  143.3098  164.3457 N.ar    1  UNL1       -0.3105
@<TRIPOS>BOND
     1     8     9    2
     2     9     1    1
     3     1     2   ar
     4     2     3   ar
     5     3    21    1
     6    21    22    1
     7    22    23    1
     8    23    24    2
     9    24    25    1
    10    25    26    2
    11    25    27    1
    12    27    28   ar
    13    28    29   ar
    14    29    30    1
    15    29    31   ar
    16    31    32    1
    17    31    33   ar
    18     3     4   ar
    19     4     5   ar
    20     5     6   ar
    21     6     7    1
    22     9    10   am
    23    10    11    1
    24    11    12    1
    25    12    13    1
    26    13    14    1
    27    14    15    1
    28    15    16    1
    29    16    17    1
    30    13    18    1
    31    18    19    1
    32     6     1   ar
    33    19    10    1
    34    33    22    1
    35    17    13    1
    36    33    27   ar
    37    17    20    1
@<TRIPOS>MOLECULE
*****
 33 37 0 0 0
SMALL
GASTEIGER

@<TRIPOS>ATOM
      1 C         143.1423  138.5273  165.0033 C.ar    1  UNL1        0.0807
      2 C         141.7997  138.1748  164.4349 C.ar    1  UNL1        0.0026
      3 C         141.5445  138.3265  162.9646 C.ar    1  UNL1       -0.0196
      4 C         142.6319  138.8308  162.0627 C.ar    1  UNL1       -0.0019
      5 C         143.9745  139.1833  162.6311 C.ar    1  UNL1        0.0295
      6 C         144.2297  139.0316  164.1014 C.ar    1  UNL1        0.1444
      7 F         145.5723  139.3841  164.6699 F       1  UNL1       -0.2040
      8 O         144.3313  137.3103  166.9667 O.2     1  UNL1       -0.2698
      9 C         143.3976  138.3756  166.4736 C.2     1  UNL1        0.2512
     10 N         142.7192  139.2894  167.4508 N.am    1  UNL1       -0.2759
     11 C         142.9745  139.1377  168.9211 C.3     1  UNL1        0.0950
     12 C         142.2961  140.0515  169.8983 C.3     1  UNL1        0.0360
     13 C         141.3624  141.1169  169.4051 C.3     1  UNL1        0.0452
     14 C         140.4083  142.2224  169.0624 C.3     1  UNL1        0.0160
     15 C         139.9752  142.8742  170.3420 C.3     1  UNL1        0.0184
     16 C         140.6617  142.1716  171.4756 C.3     1  UNL1        0.0685
     17 N         141.5190  141.0854  170.8966 N.3     1  UNL1       -0.2994
     18 C         141.1071  141.2685  167.9348 C.3     1  UNL1        0.0360
     19 C         141.7856  140.3547  166.9577 C.3     1  UNL1        0.0950
     20 H         141.2201  140.1793  171.2570 H       1  UNL1        0.1232
     21 C         140.2019  137.9740  162.3961 C.3     1  UNL1        0.0549
     22 C         139.5884  138.8350  161.3320 C.3     1  UNL1        0.1295
     23 C         139.5998  138.3823  159.9020 C.2     1  UNL1        0.0853
     24 N         138.9863  139.2432  158.8377 N.am    1  UNL1       -0.1757
     25 C         138.3616  140.5569  159.2036 C.2     1  UNL1        0.2847
     26 O         137.7481  141.4179  158.1394 O.2     1  UNL1       -0.2664
     27 C         138.3502  141.0097  160.6337 C.ar    1  UNL1        0.1177
     28 C         137.8113  142.2456  161.2909 C.ar    1  UNL1        0.0356
     29 C         138.0917  142.1485  162.7612 C.ar    1  UNL1        0.0859
     30 CL        137.7245  143.1684  163.7980 Cl      1  UNL1       -0.0798
     31 C         138.8039  140.8526  163.0127 C.ar    1  UNL1        0.1299
     32 CL        139.2738  140.3489  164.3452 Cl      1  UNL1       -0.0622
     33 N         138.9637  140.1487  161.6978 N.ar    1  UNL1       -0.3105
@<TRIPOS>BOND
     1     8     9    2
     2     9     1    1
     3     1     2   ar
     4     2     3   ar
     5     3    21    1
     6    21    22    1
     7    22    23    1
     8    23    24    2
     9    24    25    1
    10    25    26    2
    11    25    27    1
    12    27    28   ar
    13    28    29   ar
    14    29    30    1
    15    29    31   ar
    16    31    32    1
    17    31    33   ar
    18     3     4   ar
    19     4     5   ar
    20     5     6   ar
    21     6     7    1
    22     9    10   am
    23    10    11    1
    24    11    12    1
    25    12    13    1
    26    13    14    1
    27    14    15    1
    28    15    16    1
    29    16    17    1
    30    13    18    1
    31    18    19    1
    32     6     1   ar
    33    19    10    1
    34    33    22    1
    35    17    13    1
    36    33    27   ar
    37    17    20    1
@<TRIPOS>MOLECULE
*****
 33 37 0 0 0
SMALL
GASTEIGER

@<TRIPOS>ATOM
      1 C         141.1435  138.8393  163.4701 C.ar    1  UNL1        0.0807
      2 C         140.6892  140.2031  163.8984 C.ar    1  UNL1        0.0026
      3 C         139.6081  140.3443  164.9286 C.ar    1  UNL1       -0.0196
      4 C         138.9814  139.1217  165.5306 C.ar    1  UNL1       -0.0019
      5 C         139.4358  137.7578  165.1023 C.ar    1  UNL1        0.0295
      6 C         140.5168  137.6166  164.0720 C.ar    1  UNL1        0.1444
      7 F         140.9711  136.2527  163.6438 F       1  UNL1       -0.2040
      8 O         143.6643  138.6861  162.8602 O.2     1  UNL1       -0.2698
      9 C         142.2245  138.6980  162.4399 C.2     1  UNL1        0.2512
     10 N         141.8657  138.5685  160.9891 N.am    1  UNL1       -0.2759
     11 C         142.9466  138.4272  159.9588 C.3     1  UNL1        0.0950
     12 C         142.5878  138.2977  158.5081 C.3     1  UNL1        0.0360
     13 C         141.1479  138.3096  158.0878 C.3     1  UNL1        0.0452
     14 C         139.7596  138.3050  157.5200 C.3     1  UNL1        0.0160
     15 C         139.8680  138.1546  156.0315 C.3     1  UNL1        0.0184
     16 C         141.3234  138.0662  155.6794 C.3     1  UNL1        0.0685
     17 N         142.1145  138.1620  156.9502 N.3     1  UNL1       -0.2994
     18 C         140.0670  138.4509  159.1181 C.3     1  UNL1        0.0360
     19 C         140.4259  138.5803  160.5688 C.3     1  UNL1        0.0950
     20 H         142.7320  138.9729  156.9133 H       1  UNL1        0.1232
     21 C         139.1538  141.7082  165.3569 C.3     1  UNL1        0.0549
     22 C         139.1261  142.8347  164.3669 C.3     1  UNL1        0.1295
     23 C         137.8693  143.1321  163.6040 C.2     1  UNL1        0.0853
     24 N         137.8416  144.2586  162.6139 N.am    1  UNL1       -0.1757
     25 C         139.0707  145.0878  162.3868 C.2     1  UNL1        0.2847
     26 O         139.0430  146.2144  161.3967 O.2     1  UNL1       -0.2664
     27 C         140.3276  144.7905  163.1497 C.ar    1  UNL1        0.1177
     28 C         141.6840  145.4307  163.1379 C.ar    1  UNL1        0.0356
     29 C         142.5501  144.6998  164.1206 C.ar    1  UNL1        0.0859
     30 CL        143.9854  145.0069  164.4299 Cl      1  UNL1       -0.0798
     31 C         141.7289  143.6079  164.7398 C.ar    1  UNL1        0.1299
     32 CL        142.1988  142.6314  165.7769 Cl      1  UNL1       -0.0622
     33 N         140.3553  143.6640  164.1397 N.ar    1  UNL1       -0.3105
@<TRIPOS>BOND
     1     8     9    2
     2     9     1    1
     3     1     2   ar
     4     2     3   ar
     5     3    21    1
     6    21    22    1
     7    22    23    1
     8    23    24    2
     9    24    25    1
    10    25    26    2
    11    25    27    1
    12    27    28   ar
    13    28    29   ar
    14    29    30    1
    15    29    31   ar
    16    31    32    1
    17    31    33   ar
    18     3     4   ar
    19     4     5   ar
    20     5     6   ar
    21     6     7    1
    22     9    10   am
    23    10    11    1
    24    11    12    1
    25    12    13    1
    26    13    14    1
    27    14    15    1
    28    15    16    1
    29    16    17    1
    30    13    18    1
    31    18    19    1
    32     6     1   ar
    33    19    10    1
    34    33    22    1
    35    17    13    1
    36    33    27   ar
    37    17    20    1
