@<TRIPOS>MOLECULE
*****
 30 34 0 0 0
SMALL
GASTEIGER

@<TRIPOS>ATOM
      1 N         142.9147  140.8101  162.3532 N.3     1  UNL1       -0.2725
      2 C         144.0410  141.1905  163.2679 C.3     1  UNL1        0.0738
      3 C         143.9003  141.0022  164.7494 C.3     1  UNL1        0.0376
      4 C         142.6333  140.4333  165.3162 C.3     1  UNL1        0.0841
      5 C         141.5070  140.0529  164.4014 C.3     1  UNL1        0.0376
      6 C         141.6477  140.2413  162.9200 C.3     1  UNL1        0.0738
      7 N         142.4926  140.2450  166.7976 N.am    1  UNL1       -0.2423
      8 C         143.0630  139.1137  167.6006 C.2     1  UNL1        0.3309
      9 O         143.8742  137.9722  167.0632 O.2     1  UNL1       -0.2501
     10 N         142.6798  139.3243  169.0354 N.am    1  UNL1       -0.1647
     11 C         141.8724  140.5859  169.1192 C.2     1  UNL1        0.0706
     12 C         141.2278  141.2898  170.2762 C.3     1  UNL1        0.0705
     13 C         140.4673  142.5630  170.0501 C.2     1  UNL1       -0.0199
     14 C         140.3517  143.1320  168.6670 C.2     1  UNL1       -0.0029
     15 C         140.9964  142.4279  167.5100 C.2     1  UNL1        0.0156
     16 C         141.7568  141.1548  167.7361 C.2     1  UNL1        0.0668
     17 C         143.0554  140.9984  160.8718 C.3     1  UNL1        0.0739
     18 C         143.5487  142.3054  160.3254 C.3     1  UNL1        0.0392
     19 C         142.6615  143.5146  160.3578 C.3     1  UNL1        0.0996
     20 O         144.1385  144.9422  162.5443 O.2     1  UNL1       -0.2745
     21 C         142.6877  144.6022  162.7171 C.2     1  UNL1        0.2297
     22 C         141.9754  144.9761  163.9832 C.3     1  UNL1        0.0904
     23 C         140.5248  144.6362  164.1560 C.3     1  UNL1        0.0388
     24 C         139.7862  143.9224  163.0628 C.ar    1  UNL1        0.0112
     25 C         138.3355  143.5825  163.2356 C.ar    1  UNL1        0.0958
     26 N         137.5971  142.8687  162.1424 N.ar    1  UNL1       -0.2426
     27 C         138.3094  142.4948  160.8763 C.ar    1  UNL1        0.1001
     28 C         139.7601  142.8347  160.7035 C.ar    1  UNL1        0.0352
     29 C         140.4985  143.5485  161.7967 C.ar    1  UNL1        0.0529
     30 N         141.9493  143.8884  161.6239 N.am    1  UNL1       -0.2588
@<TRIPOS>BOND
     1    20    21    2
     2    21    22    1
     3    22    23    1
     4    23    24    1
     5    24    25   ar
     6    25    26   ar
     7    26    27   ar
     8    27    28   ar
     9    28    29   ar
    10    29    30    1
    11    30    19    1
    12    19    18    1
    13    18    17    1
    14    17     1    1
    15     1     2    1
    16     2     3    1
    17     3     4    1
    18     4     7    1
    19     7     8   am
    20     8     9    2
    21     8    10    1
    22    10    11    2
    23    11    12    1
    24    12    13    1
    25    13    14    2
    26    14    15    1
    27    15    16    2
    28     4     5    1
    29     5     6    1
    30    30    21   am
    31     6     1    1
    32    29    24   ar
    33    16     7    1
    34    16    11    1
@<TRIPOS>MOLECULE
*****
 30 34 0 0 0
SMALL
GASTEIGER

@<TRIPOS>ATOM
      1 N         141.8543  140.5289  162.2002 N.3     1  UNL1       -0.2725
      2 C         140.5286  141.1715  162.4821 C.3     1  UNL1        0.0738
      3 C         139.8996  141.0301  163.8366 C.3     1  UNL1        0.0376
      4 C         140.5963  140.2461  164.9089 C.3     1  UNL1        0.0841
      5 C         141.9220  139.6035  164.6269 C.3     1  UNL1        0.0376
      6 C         142.5510  139.7449  163.2726 C.3     1  UNL1        0.0738
      7 N         139.9673  140.1048  166.2633 N.am    1  UNL1       -0.2423
      8 C         138.9574  139.0701  166.6627 C.2     1  UNL1        0.3309
      9 O         138.3992  137.9951  165.7779 O.2     1  UNL1       -0.2501
     10 N         138.6037  139.2991  168.1023 N.am    1  UNL1       -0.1647
     11 C         139.3950  140.4753  168.5927 C.2     1  UNL1        0.0706
     12 C         139.4569  141.1572  169.9272 C.3     1  UNL1        0.0705
     13 C         140.3618  142.3372  170.1253 C.2     1  UNL1       -0.0199
     14 C         141.2045  142.8351  168.9886 C.2     1  UNL1       -0.0029
     15 C         141.1425  142.1531  167.6540 C.2     1  UNL1        0.0156
     16 C         140.2377  140.9732  167.4561 C.2     1  UNL1        0.0668
     17 C         142.4833  140.6702  160.8458 C.3     1  UNL1        0.0739
     18 C         143.8449  141.2851  160.7117 C.3     1  UNL1        0.0392
     19 C         144.0093  142.7727  160.8127 C.3     1  UNL1        0.0996
     20 O         144.8887  142.7064  163.6801 O.2     1  UNL1       -0.2745
     21 C         143.6858  143.5098  163.2829 C.2     1  UNL1        0.2297
     22 C         142.9226  144.2800  164.3194 C.3     1  UNL1        0.0904
     23 C         141.7198  145.0834  163.9222 C.3     1  UNL1        0.0388
     24 C         141.2801  145.1166  162.4884 C.ar    1  UNL1        0.0112
     25 C         140.0773  145.9199  162.0913 C.ar    1  UNL1        0.0958
     26 N         139.6376  145.9530  160.6576 N.ar    1  UNL1       -0.2426
     27 C         140.4008  145.1828  159.6210 C.ar    1  UNL1        0.1001
     28 C         141.6036  144.3795  160.0182 C.ar    1  UNL1        0.0352
     29 C         142.0432  144.3463  161.4519 C.ar    1  UNL1        0.0529
     30 N         143.2461  143.5430  161.8492 N.am    1  UNL1       -0.2588
@<TRIPOS>BOND
     1    20    21    2
     2    21    22    1
     3    22    23    1
     4    23    24    1
     5    24    25   ar
     6    25    26   ar
     7    26    27   ar
     8    27    28   ar
     9    28    29   ar
    10    29    30    1
    11    30    19    1
    12    19    18    1
    13    18    17    1
    14    17     1    1
    15     1     2    1
    16     2     3    1
    17     3     4    1
    18     4     7    1
    19     7     8   am
    20     8     9    2
    21     8    10    1
    22    10    11    2
    23    11    12    1
    24    12    13    1
    25    13    14    2
    26    14    15    1
    27    15    16    2
    28     4     5    1
    29     5     6    1
    30    30    21   am
    31     6     1    1
    32    29    24   ar
    33    16     7    1
    34    16    11    1
@<TRIPOS>MOLECULE
*****
 30 34 0 0 0
SMALL
GASTEIGER

@<TRIPOS>ATOM
      1 N         142.8826  141.6769  162.9679 N.3     1  UNL1       -0.2725
      2 C         141.9102  140.5984  163.3437 C.3     1  UNL1        0.0738
      3 C         141.7471  140.2034  164.7816 C.3     1  UNL1        0.0376
      4 C         142.5565  140.8869  165.8436 C.3     1  UNL1        0.0841
      5 C         143.5289  141.9655  165.4677 C.3     1  UNL1        0.0376
      6 C         143.6920  142.3604  164.0298 C.3     1  UNL1        0.0738
      7 N         142.3934  140.4920  167.2814 N.am    1  UNL1       -0.2423
      8 C         142.9265  139.2430  167.9185 C.2     1  UNL1        0.3309
      9 O         143.7162  138.1698  167.2297 O.2     1  UNL1       -0.2501
     10 N         142.5312  139.2557  169.3654 N.am    1  UNL1       -0.1647
     11 C         141.7538  140.5126  169.6226 C.2     1  UNL1        0.0706
     12 C         141.1125  141.0600  170.8631 C.3     1  UNL1        0.0705
     13 C         140.3860  142.3715  170.8157 C.2     1  UNL1       -0.0199
     14 C         140.3008  143.1355  169.5276 C.2     1  UNL1       -0.0029
     15 C         140.9422  142.5881  168.2871 C.2     1  UNL1        0.0156
     16 C         141.6687  141.2766  168.3346 C.2     1  UNL1        0.0668
     17 C         143.0457  142.0719  161.5301 C.3     1  UNL1        0.0739
     18 C         142.8998  143.5090  161.1258 C.3     1  UNL1        0.0392
     19 C         141.5560  144.1728  161.1877 C.3     1  UNL1        0.0996
     20 O         141.9998  145.6147  163.7808 O.2     1  UNL1       -0.2745
     21 C         140.8683  144.6386  163.6494 C.2     1  UNL1        0.2297
     22 C         139.9587  144.3836  164.8145 C.3     1  UNL1        0.0904
     23 C         138.8273  143.4076  164.6832 C.3     1  UNL1        0.0388
     24 C         138.6054  142.6867  163.3866 C.ar    1  UNL1        0.0112
     25 C         137.4739  141.7107  163.2552 C.ar    1  UNL1        0.0958
     26 N         137.2521  140.9898  161.9587 N.ar    1  UNL1       -0.2426
     27 C         138.1617  141.2449  160.7935 C.ar    1  UNL1        0.1001
     28 C         139.2931  142.2208  160.9249 C.ar    1  UNL1        0.0352
     29 C         139.5150  142.9417  162.2214 C.ar    1  UNL1        0.0529
     30 N         140.6465  143.9177  162.3528 N.am    1  UNL1       -0.2588
@<TRIPOS>BOND
     1    20    21    2
     2    21    22    1
     3    22    23    1
     4    23    24    1
     5    24    25   ar
     6    25    26   ar
     7    26    27   ar
     8    27    28   ar
     9    28    29   ar
    10    29    30    1
    11    30    19    1
    12    19    18    1
    13    18    17    1
    14    17     1    1
    15     1     2    1
    16     2     3    1
    17     3     4    1
    18     4     7    1
    19     7     8   am
    20     8     9    2
    21     8    10    1
    22    10    11    2
    23    11    12    1
    24    12    13    1
    25    13    14    2
    26    14    15    1
    27    15    16    2
    28     4     5    1
    29     5     6    1
    30    30    21   am
    31     6     1    1
    32    29    24   ar
    33    16     7    1
    34    16    11    1
@<TRIPOS>MOLECULE
*****
 30 34 0 0 0
SMALL
GASTEIGER

@<TRIPOS>ATOM
      1 N         138.7335  142.0905  161.7635 N.3     1  UNL1       -0.2725
      2 C         139.8728  141.1441  162.0008 C.3     1  UNL1        0.0738
      3 C         140.1892  140.6856  163.3936 C.3     1  UNL1        0.0376
      4 C         139.3662  141.1734  164.5489 C.3     1  UNL1        0.0841
      5 C         138.2269  142.1198  164.3115 C.3     1  UNL1        0.0376
      6 C         137.9106  142.5784  162.9188 C.3     1  UNL1        0.0738
      7 N         139.6825  140.7149  165.9416 N.am    1  UNL1       -0.2423
      8 C         138.8797  139.7419  166.7532 C.2     1  UNL1        0.3309
      9 O         137.6195  139.0567  166.3146 O.2     1  UNL1       -0.2501
     10 N         139.5582  139.5745  168.0804 N.am    1  UNL1       -0.1647
     11 C         140.7805  140.4440  168.0891 C.2     1  UNL1        0.0706
     12 C         141.8333  140.6850  169.1300 C.3     1  UNL1        0.0705
     13 C         142.9631  141.6308  168.8489 C.2     1  UNL1       -0.0199
     14 C         143.0400  142.3357  167.5270 C.2     1  UNL1       -0.0029
     15 C         141.9871  142.0946  166.4862 C.2     1  UNL1        0.0156
     16 C         140.8573  141.1488  166.7673 C.2     1  UNL1        0.0668
     17 C         138.4172  142.5490  160.3708 C.3     1  UNL1        0.0739
     18 C         139.5247  142.9636  159.4479 C.3     1  UNL1        0.0392
     19 C         140.2641  144.2457  159.6921 C.3     1  UNL1        0.0996
     20 O         139.0495  145.8644  161.9067 O.2     1  UNL1       -0.2745
     21 C         140.4088  145.2546  162.0818 C.2     1  UNL1        0.2297
     22 C         141.1607  145.4542  163.3643 C.3     1  UNL1        0.0904
     23 C         142.5199  144.8445  163.5395 C.3     1  UNL1        0.0388
     24 C         143.1272  144.0351  162.4322 C.ar    1  UNL1        0.0112
     25 C         144.4864  143.4253  162.6074 C.ar    1  UNL1        0.0958
     26 N         145.0937  142.6160  161.5001 N.ar    1  UNL1       -0.2426
     27 C         144.3418  142.4164  160.2177 C.ar    1  UNL1        0.1001
     28 C         142.9826  143.0261  160.0425 C.ar    1  UNL1        0.0352
     29 C         142.3753  143.8355  161.1497 C.ar    1  UNL1        0.0529
     30 N         141.0160  144.4453  160.9746 N.am    1  UNL1       -0.2588
@<TRIPOS>BOND
     1    20    21    2
     2    21    22    1
     3    22    23    1
     4    23    24    1
     5    24    25   ar
     6    25    26   ar
     7    26    27   ar
     8    27    28   ar
     9    28    29   ar
    10    29    30    1
    11    30    19    1
    12    19    18    1
    13    18    17    1
    14    17     1    1
    15     1     2    1
    16     2     3    1
    17     3     4    1
    18     4     7    1
    19     7     8   am
    20     8     9    2
    21     8    10    1
    22    10    11    2
    23    11    12    1
    24    12    13    1
    25    13    14    2
    26    14    15    1
    27    15    16    2
    28     4     5    1
    29     5     6    1
    30    30    21   am
    31     6     1    1
    32    29    24   ar
    33    16     7    1
    34    16    11    1
@<TRIPOS>MOLECULE
*****
 30 34 0 0 0
SMALL
GASTEIGER

@<TRIPOS>ATOM
      1 N         138.5369  139.6226  164.0417 N.3     1  UNL1       -0.2725
      2 C         138.8306  141.0365  164.4474 C.3     1  UNL1        0.0738
      3 C         139.2785  141.3376  165.8470 C.3     1  UNL1        0.0376
      4 C         139.4326  140.2247  166.8409 C.3     1  UNL1        0.0841
      5 C         139.1388  138.8108  166.4351 C.3     1  UNL1        0.0376
      6 C         138.6910  138.5098  165.0356 C.3     1  UNL1        0.0738
      7 N         139.8804  140.5257  168.2404 N.am    1  UNL1       -0.2423
      8 C         139.1333  140.1890  169.4968 C.2     1  UNL1        0.3309
      9 O         137.8073  139.4922  169.5742 O.2     1  UNL1       -0.2501
     10 N         139.9451  140.6714  170.6622 N.am    1  UNL1       -0.1647
     11 C         141.1940  141.3063  170.1261 C.2     1  UNL1        0.0706
     12 C         142.3623  141.9548  170.8076 C.3     1  UNL1        0.0705
     13 C         143.4908  142.5133  169.9922 C.2     1  UNL1       -0.0199
     14 C         143.4508  142.4232  168.4953 C.2     1  UNL1       -0.0029
     15 C         142.2823  141.7747  167.8140 C.2     1  UNL1        0.0156
     16 C         141.1540  141.2162  168.6294 C.2     1  UNL1        0.0668
     17 C         138.0891  139.3216  162.6422 C.3     1  UNL1        0.0739
     18 C         138.8029  139.9402  161.4769 C.3     1  UNL1        0.0392
     19 C         140.2380  139.5962  161.2080 C.3     1  UNL1        0.0996
     20 O         140.9935  137.0753  162.6482 O.2     1  UNL1       -0.2745
     21 C         141.6191  138.3805  163.0422 C.2     1  UNL1        0.2297
     22 C         142.6224  138.4251  164.1564 C.3     1  UNL1        0.0904
     23 C         143.2481  139.7302  164.5504 C.3     1  UNL1        0.0388
     24 C         142.8703  140.9907  163.8303 C.ar    1  UNL1        0.0112
     25 C         143.4959  142.2958  164.2243 C.ar    1  UNL1        0.0958
     26 N         143.1182  143.5563  163.5042 N.ar    1  UNL1       -0.2426
     27 C         142.1148  143.5116  162.3901 C.ar    1  UNL1        0.1001
     28 C         141.4892  142.2065  161.9961 C.ar    1  UNL1        0.0352
     29 C         141.8670  140.9461  162.7162 C.ar    1  UNL1        0.0529
     30 N         141.2413  139.6409  162.3221 N.am    1  UNL1       -0.2588
@<TRIPOS>BOND
     1    20    21    2
     2    21    22    1
     3    22    23    1
     4    23    24    1
     5    24    25   ar
     6    25    26   ar
     7    26    27   ar
     8    27    28   ar
     9    28    29   ar
    10    29    30    1
    11    30    19    1
    12    19    18    1
    13    18    17    1
    14    17     1    1
    15     1     2    1
    16     2     3    1
    17     3     4    1
    18     4     7    1
    19     7     8   am
    20     8     9    2
    21     8    10    1
    22    10    11    2
    23    11    12    1
    24    12    13    1
    25    13    14    2
    26    14    15    1
    27    15    16    2
    28     4     5    1
    29     5     6    1
    30    30    21   am
    31     6     1    1
    32    29    24   ar
    33    16     7    1
    34    16    11    1
@<TRIPOS>MOLECULE
*****
 30 34 0 0 0
SMALL
GASTEIGER

@<TRIPOS>ATOM
      1 N         138.5419  139.5713  164.1148 N.3     1  UNL1       -0.2725
      2 C         139.1080  140.9247  164.4276 C.3     1  UNL1        0.0738
      3 C         139.5608  141.2444  165.8215 C.3     1  UNL1        0.0376
      4 C         139.4475  140.2107  166.9025 C.3     1  UNL1        0.0841
      5 C         138.8814  138.8572  166.5896 C.3     1  UNL1        0.0376
      6 C         138.4286  138.5376  165.1958 C.3     1  UNL1        0.0738
      7 N         139.9003  140.5303  168.2963 N.am    1  UNL1       -0.2423
      8 C         139.1538  140.2180  169.5592 C.2     1  UNL1        0.3309
      9 O         137.8234  139.5312  169.6501 O.2     1  UNL1       -0.2501
     10 N         139.9712  140.7130  170.7154 N.am    1  UNL1       -0.1647
     11 C         141.2231  141.3313  170.1670 C.2     1  UNL1        0.0706
     12 C         142.3971  141.9825  170.8359 C.3     1  UNL1        0.0705
     13 C         143.5275  142.5208  170.0096 C.2     1  UNL1       -0.0199
     14 C         143.4836  142.4079  168.5145 C.2     1  UNL1       -0.0029
     15 C         142.3095  141.7567  167.8456 C.2     1  UNL1        0.0156
     16 C         141.1792  141.2184  168.6719 C.2     1  UNL1        0.0668
     17 C         138.0891  139.2517  162.7210 C.3     1  UNL1        0.0739
     18 C         138.8285  138.2310  161.9077 C.3     1  UNL1        0.0392
     19 C         140.0889  137.6169  162.4410 C.3     1  UNL1        0.0996
     20 O         140.8027  138.3557  159.6224 O.2     1  UNL1       -0.2745
     21 C         141.7726  138.6203  160.7357 C.2     1  UNL1        0.2297
     22 C         143.0994  139.2543  160.4397 C.3     1  UNL1        0.0904
     23 C         144.0692  139.5190  161.5529 C.3     1  UNL1        0.0388
     24 C         143.7123  139.1496  162.9623 C.ar    1  UNL1        0.0112
     25 C         144.6821  139.4142  164.0755 C.ar    1  UNL1        0.0958
     26 N         144.3252  139.0448  165.4848 N.ar    1  UNL1       -0.2426
     27 C         142.9984  138.4108  165.7808 C.ar    1  UNL1        0.1001
     28 C         142.0286  138.1462  164.6676 C.ar    1  UNL1        0.0352
     29 C         142.3855  138.5156  163.2583 C.ar    1  UNL1        0.0529
     30 N         141.4157  138.2509  162.1450 N.am    1  UNL1       -0.2588
@<TRIPOS>BOND
     1    20    21    2
     2    21    22    1
     3    22    23    1
     4    23    24    1
     5    24    25   ar
     6    25    26   ar
     7    26    27   ar
     8    27    28   ar
     9    28    29   ar
    10    29    30    1
    11    30    19    1
    12    19    18    1
    13    18    17    1
    14    17     1    1
    15     1     2    1
    16     2     3    1
    17     3     4    1
    18     4     7    1
    19     7     8   am
    20     8     9    2
    21     8    10    1
    22    10    11    2
    23    11    12    1
    24    12    13    1
    25    13    14    2
    26    14    15    1
    27    15    16    2
    28     4     5    1
    29     5     6    1
    30    30    21   am
    31     6     1    1
    32    29    24   ar
    33    16     7    1
    34    16    11    1
@<TRIPOS>MOLECULE
*****
 30 34 0 0 0
SMALL
GASTEIGER

@<TRIPOS>ATOM
      1 N         140.9168  139.6041  162.8877 N.3     1  UNL1       -0.2725
      2 C         142.2250  140.2388  163.2560 C.3     1  UNL1        0.0738
      3 C         142.5899  140.4217  164.6994 C.3     1  UNL1        0.0376
      4 C         141.6465  139.9699  165.7745 C.3     1  UNL1        0.0841
      5 C         140.3382  139.3352  165.4062 C.3     1  UNL1        0.0376
      6 C         139.9733  139.1523  163.9628 C.3     1  UNL1        0.0738
      7 N         142.0113  140.1527  167.2179 N.am    1  UNL1       -0.2423
      8 C         142.9121  139.2605  168.0195 C.2     1  UNL1        0.3309
      9 O         143.6062  138.0288  167.5184 O.2     1  UNL1       -0.2501
     10 N         142.9969  139.8162  169.4102 N.am    1  UNL1       -0.1647
     11 C         142.1485  141.0519  169.4681 C.2     1  UNL1        0.0706
     12 C         141.8520  142.0146  170.5795 C.3     1  UNL1        0.0705
     13 C         140.9463  143.1853  170.3361 C.2     1  UNL1       -0.0199
     14 C         140.3372  143.3933  168.9812 C.2     1  UNL1       -0.0029
     15 C         140.6337  142.4305  167.8697 C.2     1  UNL1        0.0156
     16 C         141.5394  141.2599  168.1132 C.2     1  UNL1        0.0668
     17 C         140.5519  139.4213  161.4443 C.3     1  UNL1        0.0739
     18 C         139.2539  139.9641  160.9242 C.3     1  UNL1        0.0392
     19 C         139.0417  141.4466  160.8380 C.3     1  UNL1        0.0996
     20 O         136.9306  141.5015  162.9688 O.2     1  UNL1       -0.2745
     21 C         138.1717  142.3303  163.1210 C.2     1  UNL1        0.2297
     22 C         138.3571  143.1865  164.3386 C.3     1  UNL1        0.0904
     23 C         139.5980  144.0152  164.4908 C.3     1  UNL1        0.0388
     24 C         140.6536  143.9877  163.4254 C.ar    1  UNL1        0.0112
     25 C         141.8946  144.8165  163.5776 C.ar    1  UNL1        0.0958
     26 N         142.9501  144.7890  162.5122 N.ar    1  UNL1       -0.2426
     27 C         142.7647  143.9328  161.2946 C.ar    1  UNL1        0.1001
     28 C         141.5237  143.1041  161.1424 C.ar    1  UNL1        0.0352
     29 C         140.4682  143.1315  162.2078 C.ar    1  UNL1        0.0529
     30 N         139.2272  142.3028  162.0556 N.am    1  UNL1       -0.2588
@<TRIPOS>BOND
     1    20    21    2
     2    21    22    1
     3    22    23    1
     4    23    24    1
     5    24    25   ar
     6    25    26   ar
     7    26    27   ar
     8    27    28   ar
     9    28    29   ar
    10    29    30    1
    11    30    19    1
    12    19    18    1
    13    18    17    1
    14    17     1    1
    15     1     2    1
    16     2     3    1
    17     3     4    1
    18     4     7    1
    19     7     8   am
    20     8     9    2
    21     8    10    1
    22    10    11    2
    23    11    12    1
    24    12    13    1
    25    13    14    2
    26    14    15    1
    27    15    16    2
    28     4     5    1
    29     5     6    1
    30    30    21   am
    31     6     1    1
    32    29    24   ar
    33    16     7    1
    34    16    11    1
@<TRIPOS>MOLECULE
*****
 30 34 0 0 0
SMALL
GASTEIGER

@<TRIPOS>ATOM
      1 N         141.1226  138.7902  163.1812 N.3     1  UNL1       -0.2725
      2 C         141.9418  138.2296  164.3057 C.3     1  UNL1        0.0738
      3 C         141.6618  138.6482  165.7187 C.3     1  UNL1        0.0376
      4 C         140.5627  139.6274  166.0071 C.3     1  UNL1        0.0841
      5 C         139.7435  140.1879  164.8824 C.3     1  UNL1        0.0376
      6 C         140.0234  139.7693  163.4695 C.3     1  UNL1        0.0738
      7 N         140.2827  140.0460  167.4200 N.am    1  UNL1       -0.2423
      8 C         139.0761  139.6705  168.2281 C.2     1  UNL1        0.3309
      9 O         137.9377  138.8105  167.7653 O.2     1  UNL1       -0.2501
     10 N         139.2079  140.3060  169.5804 N.am    1  UNL1       -0.1647
     11 C         140.4959  141.0743  169.6081 C.2     1  UNL1        0.0706
     12 C         141.1496  141.8994  170.6766 C.3     1  UNL1        0.0705
     13 C         142.4678  142.5639  170.4099 C.2     1  UNL1       -0.0199
     14 C         143.1321  142.4032  169.0746 C.2     1  UNL1       -0.0029
     15 C         142.4783  141.5780  168.0061 C.2     1  UNL1        0.0156
     16 C         141.1602  140.9136  168.2728 C.2     1  UNL1        0.0668
     17 C         141.4026  138.3716  161.7683 C.3     1  UNL1        0.0739
     18 C         142.5854  137.5006  161.4645 C.3     1  UNL1        0.0392
     19 C         143.9212  138.1216  161.1818 C.3     1  UNL1        0.0996
     20 O         143.4357  138.9310  158.3341 O.2     1  UNL1       -0.2745
     21 C         143.7656  139.9709  159.3636 C.2     1  UNL1        0.2297
     22 C         143.8527  141.4155  158.9692 C.3     1  UNL1        0.0904
     23 C         144.1826  142.4554  159.9986 C.3     1  UNL1        0.0388
     24 C         144.4253  142.0508  161.4225 C.ar    1  UNL1        0.0112
     25 C         144.7552  143.0907  162.4519 C.ar    1  UNL1        0.0958
     26 N         144.9979  142.6860  163.8757 N.ar    1  UNL1       -0.2426
     27 C         144.9108  141.2414  164.2701 C.ar    1  UNL1        0.1001
     28 C         144.5810  140.2015  163.2407 C.ar    1  UNL1        0.0352
     29 C         144.3382  140.6062  161.8169 C.ar    1  UNL1        0.0529
     30 N         144.0083  139.5662  160.7874 N.am    1  UNL1       -0.2588
@<TRIPOS>BOND
     1    20    21    2
     2    21    22    1
     3    22    23    1
     4    23    24    1
     5    24    25   ar
     6    25    26   ar
     7    26    27   ar
     8    27    28   ar
     9    28    29   ar
    10    29    30    1
    11    30    19    1
    12    19    18    1
    13    18    17    1
    14    17     1    1
    15     1     2    1
    16     2     3    1
    17     3     4    1
    18     4     7    1
    19     7     8   am
    20     8     9    2
    21     8    10    1
    22    10    11    2
    23    11    12    1
    24    12    13    1
    25    13    14    2
    26    14    15    1
    27    15    16    2
    28     4     5    1
    29     5     6    1
    30    30    21   am
    31     6     1    1
    32    29    24   ar
    33    16     7    1
    34    16    11    1
@<TRIPOS>MOLECULE
*****
 30 34 0 0 0
SMALL
GASTEIGER

@<TRIPOS>ATOM
      1 N         138.1175  139.5112  162.1015 N.3     1  UNL1       -0.2725
      2 C         138.7809  138.3885  162.8427 C.3     1  UNL1        0.0738
      3 C         139.0393  138.5112  164.3152 C.3     1  UNL1        0.0376
      4 C         138.6343  139.7567  165.0465 C.3     1  UNL1        0.0841
      5 C         137.9709  140.8795  164.3052 C.3     1  UNL1        0.0376
      6 C         137.7125  140.7567  162.8328 C.3     1  UNL1        0.0738
      7 N         138.8927  139.8795  166.5189 N.am    1  UNL1       -0.2423
      8 C         138.1805  139.1285  167.6047 C.2     1  UNL1        0.3309
      9 O         137.0850  138.1229  167.4086 O.2     1  UNL1       -0.2501
     10 N         138.7563  139.5597  168.9209 N.am    1  UNL1       -0.1647
     11 C         139.8243  140.5772  168.6487 C.2     1  UNL1        0.0706
     12 C         140.7309  141.3492  169.5609 C.3     1  UNL1        0.0705
     13 C         141.7219  142.3189  168.9885 C.2     1  UNL1       -0.0199
     14 C         141.8062  142.5166  167.5039 C.2     1  UNL1       -0.0029
     15 C         140.8996  141.7445  166.5918 C.2     1  UNL1        0.0156
     16 C         139.9086  140.7748  167.1642 C.2     1  UNL1        0.0668
     17 C         137.8592  139.3884  160.6291 C.3     1  UNL1        0.0739
     18 C         138.2267  140.5129  159.7068 C.3     1  UNL1        0.0392
     19 C         139.6611  140.9281  159.5649 C.3     1  UNL1        0.0996
     20 O         139.0906  143.7190  160.5059 O.2     1  UNL1       -0.2745
     21 C         140.1149  142.8831  161.2147 C.2     1  UNL1        0.2297
     22 C         140.8539  143.4427  162.3940 C.3     1  UNL1        0.0904
     23 C         141.8781  142.6069  163.1027 C.3     1  UNL1        0.0388
     24 C         142.1634  141.2114  162.6322 C.ar    1  UNL1        0.0112
     25 C         143.1876  140.3756  163.3409 C.ar    1  UNL1        0.0958
     26 N         143.4728  138.9802  162.8704 N.ar    1  UNL1       -0.2426
     27 C         142.7338  138.4206  161.6911 C.ar    1  UNL1        0.1001
     28 C         141.7096  139.2564  160.9824 C.ar    1  UNL1        0.0352
     29 C         141.4244  140.6518  161.4529 C.ar    1  UNL1        0.0529
     30 N         140.4001  141.4877  160.7442 N.am    1  UNL1       -0.2588
@<TRIPOS>BOND
     1    20    21    2
     2    21    22    1
     3    22    23    1
     4    23    24    1
     5    24    25   ar
     6    25    26   ar
     7    26    27   ar
     8    27    28   ar
     9    28    29   ar
    10    29    30    1
    11    30    19    1
    12    19    18    1
    13    18    17    1
    14    17     1    1
    15     1     2    1
    16     2     3    1
    17     3     4    1
    18     4     7    1
    19     7     8   am
    20     8     9    2
    21     8    10    1
    22    10    11    2
    23    11    12    1
    24    12    13    1
    25    13    14    2
    26    14    15    1
    27    15    16    2
    28     4     5    1
    29     5     6    1
    30    30    21   am
    31     6     1    1
    32    29    24   ar
    33    16     7    1
    34    16    11    1
