@<TRIPOS>MOLECULE
*****
 30 32 0 0 0
SMALL
GASTEIGER

@<TRIPOS>ATOM
      1 C         141.4347  142.6455  163.4150 C.ar    1  UNL1        0.1166
      2 N         141.2002  141.1788  163.6247 N.ar    1  UNL1       -0.2296
      3 C         141.3494  140.8902  165.0890 C.ar    1  UNL1        0.1171
      4 C         141.6762  142.1784  165.7845 C.ar    1  UNL1        0.0768
      5 N         141.7289  143.2633  164.7498 N.ar    1  UNL1       -0.3408
      6 H         141.9225  144.2139  164.9175 H       1  UNL1        0.1671
      7 C         141.2824  144.8117  159.4736 C.3     1  UNL1        0.0765
      8 C         140.7916  145.4868  160.7199 C.3     1  UNL1        0.0095
      9 C         140.8424  144.7647  162.0337 C.3     1  UNL1        0.0080
     10 C         141.3839  143.3675  162.1012 C.3     1  UNL1        0.0567
     11 C         141.8747  142.6924  160.8549 C.3     1  UNL1        0.0080
     12 C         141.8240  143.4145  159.5411 C.3     1  UNL1        0.0095
     13 O         142.4235  146.3107  157.6845 O.2     1  UNL1       -0.2751
     14 C         141.2317  145.5337  158.1598 C.2     1  UNL1        0.2220
     15 N         139.9892  145.4789  157.3214 N.am    1  UNL1       -0.3020
     16 H         139.2069  144.9689  157.6334 H       1  UNL1        0.1495
     17 C         139.9384  146.2009  156.0076 C.3     1  UNL1        0.1213
     18 C         138.8460  147.1932  155.7388 C.3     1  UNL1        0.1583
     19 O         138.7716  148.4612  156.5367 O.3     1  UNL1       -0.3802
     20 H         138.5744  148.2495  157.4626 H       1  UNL1        0.2105
     21 C         141.9093  142.3515  167.2561 C.ar    1  UNL1        0.0171
     22 C         143.2776  142.1310  167.8298 C.ar    1  UNL1        0.0015
     23 C         143.5106  142.3041  169.3013 C.ar    1  UNL1       -0.0000
     24 C         142.3754  142.6977  170.1993 C.ar    1  UNL1        0.0039
     25 C         141.0072  142.9183  169.6257 C.ar    1  UNL1        0.0715
     26 C         140.7741  142.7452  168.1540 C.ar    1  UNL1        0.0053
     27 C         139.8718  143.3119  170.5236 C.3     1  UNL1        0.4186
     28 F         138.7366  143.7056  171.4215 F       1  UNL1       -0.1659
     29 F         140.2070  144.7588  170.3130 F       1  UNL1       -0.1659
     30 F         139.5368  141.8650  170.7342 F       1  UNL1       -0.1659
@<TRIPOS>BOND
     1    13    14    2
     2    14    15   am
     3    15    17    1
     4    17    18    1
     5    18    19    1
     6    14     7    1
     7     7     8    1
     8     8     9    1
     9     9    10    1
    10    10     1    1
    11     1     2   ar
    12     2     3   ar
    13     3     4   ar
    14     4    21    1
    15    21    22   ar
    16    22    23   ar
    17    23    24   ar
    18    24    25   ar
    19    25    27    1
    20    27    28    1
    21    27    29    1
    22    27    30    1
    23    25    26   ar
    24     4     5   ar
    25    10    11    1
    26    11    12    1
    27    12     7    1
    28     5     1   ar
    29    26    21   ar
    30    15    16    1
    31    19    20    1
    32     5     6    1
@<TRIPOS>MOLECULE
*****
 30 32 0 0 0
SMALL
GASTEIGER

@<TRIPOS>ATOM
      1 C         140.2275  138.6430  163.6418 C.ar    1  UNL1        0.1166
      2 N         138.9310  138.0550  164.1143 N.ar    1  UNL1       -0.2296
      3 C         138.7411  138.4448  165.5503 C.ar    1  UNL1        0.1171
      4 C         139.9203  139.2738  165.9653 C.ar    1  UNL1        0.0768
      5 N         140.8389  139.3963  164.7858 N.ar    1  UNL1       -0.3408
      6 H         141.6932  139.8853  164.7660 H       1  UNL1        0.1671
      7 C         141.9757  138.2214  159.5168 C.3     1  UNL1        0.0765
      8 C         142.7538  137.7571  160.7122 C.3     1  UNL1        0.0095
      9 C         142.1711  137.8977  162.0872 C.3     1  UNL1        0.0080
     10 C         140.8102  138.5025  162.2668 C.3     1  UNL1        0.0567
     11 C         140.0322  138.9668  161.0714 C.3     1  UNL1        0.0080
     12 C         140.6149  138.8262  159.6964 C.3     1  UNL1        0.0095
     13 O         143.6684  138.9886  157.7012 O.2     1  UNL1       -0.2751
     14 C         142.5585  138.0809  158.1418 C.2     1  UNL1        0.2220
     15 N         142.0313  137.0326  157.2073 N.am    1  UNL1       -0.3020
     16 H         141.3029  136.4368  157.4965 H       1  UNL1        0.1495
     17 C         142.6141  136.8921  155.8323 C.3     1  UNL1        0.1213
     18 C         144.0473  136.4828  155.6634 C.3     1  UNL1        0.1583
     19 O         145.0828  137.5077  155.3065 O.3     1  UNL1       -0.3802
     20 H         144.9057  137.8499  154.4164 H       1  UNL1        0.2105
     21 C         140.1420  139.8748  167.3216 C.ar    1  UNL1        0.0171
     22 C         139.0331  139.8761  168.3317 C.ar    1  UNL1        0.0015
     23 C         139.2548  140.4771  169.6880 C.ar    1  UNL1       -0.0000
     24 C         140.5854  141.0768  170.0342 C.ar    1  UNL1        0.0039
     25 C         141.6943  141.0754  169.0242 C.ar    1  UNL1        0.0715
     26 C         141.4726  140.4744  167.6678 C.ar    1  UNL1        0.0053
     27 C         143.0250  141.6751  169.3704 C.3     1  UNL1        0.4186
     28 F         144.3557  142.2747  169.7166 F       1  UNL1       -0.1659
     29 F         143.3919  140.4283  170.1195 F       1  UNL1       -0.1659
     30 F         142.6581  142.9218  168.6212 F       1  UNL1       -0.1659
@<TRIPOS>BOND
     1    13    14    2
     2    14    15   am
     3    15    17    1
     4    17    18    1
     5    18    19    1
     6    14     7    1
     7     7     8    1
     8     8     9    1
     9     9    10    1
    10    10     1    1
    11     1     2   ar
    12     2     3   ar
    13     3     4   ar
    14     4    21    1
    15    21    22   ar
    16    22    23   ar
    17    23    24   ar
    18    24    25   ar
    19    25    27    1
    20    27    28    1
    21    27    29    1
    22    27    30    1
    23    25    26   ar
    24     4     5   ar
    25    10    11    1
    26    11    12    1
    27    12     7    1
    28     5     1   ar
    29    26    21   ar
    30    15    16    1
    31    19    20    1
    32     5     6    1
@<TRIPOS>MOLECULE
*****
 30 32 0 0 0
SMALL
GASTEIGER

@<TRIPOS>ATOM
      1 C         143.0032  143.2569  162.4553 C.ar    1  UNL1        0.1166
      2 N         144.4772  143.3076  162.7287 N.ar    1  UNL1       -0.2296
      3 C         144.7156  142.7326  164.0935 C.ar    1  UNL1        0.1171
      4 C         143.3889  142.3265  164.6635 C.ar    1  UNL1        0.0768
      5 N         142.3306  142.6505  163.6511 N.ar    1  UNL1       -0.3408
      6 H         141.3642  142.4929  163.7535 H       1  UNL1        0.1671
      7 C         140.9581  144.6749  158.7060 C.3     1  UNL1        0.0765
      8 C         140.5513  145.2309  160.0384 C.3     1  UNL1        0.0095
      9 C         141.2330  144.7582  161.2882 C.3     1  UNL1        0.0080
     10 C         142.3215  143.7296  161.2055 C.3     1  UNL1        0.0567
     11 C         142.7284  143.1736  159.8732 C.3     1  UNL1        0.0080
     12 C         142.0467  143.6463  158.6234 C.3     1  UNL1        0.0095
     13 O         139.2971  144.2554  156.7529 O.2     1  UNL1       -0.2751
     14 C         140.2765  145.1476  157.4563 C.2     1  UNL1        0.2220
     15 N         140.5741  146.5124  156.9099 N.am    1  UNL1       -0.3020
     16 H         141.2170  147.0980  157.3716 H       1  UNL1        0.1495
     17 C         139.8925  146.9851  155.6602 C.3     1  UNL1        0.1213
     18 C         138.9241  148.1291  155.7209 C.3     1  UNL1        0.1583
     19 O         138.5725  148.7447  157.0427 O.3     1  UNL1       -0.3802
     20 H         138.0933  148.0976  157.5835 H       1  UNL1        0.2105
     21 C         143.1606  141.7054  166.0097 C.ar    1  UNL1        0.0171
     22 C         142.8004  140.2530  166.1142 C.ar    1  UNL1        0.0015
     23 C         142.5721  139.6320  167.4604 C.ar    1  UNL1       -0.0000
     24 C         142.7039  140.4633  168.7019 C.ar    1  UNL1        0.0039
     25 C         143.0640  141.9156  168.5974 C.ar    1  UNL1        0.0715
     26 C         143.2923  142.5367  167.2513 C.ar    1  UNL1        0.0053
     27 C         143.1958  142.7470  169.8391 C.3     1  UNL1        0.4186
     28 F         143.3276  143.5784  171.0806 F       1  UNL1       -0.1659
     29 F         141.7217  143.0236  169.8103 F       1  UNL1       -0.1659
     30 F         144.6698  142.4704  169.8677 F       1  UNL1       -0.1659
@<TRIPOS>BOND
     1    13    14    2
     2    14    15   am
     3    15    17    1
     4    17    18    1
     5    18    19    1
     6    14     7    1
     7     7     8    1
     8     8     9    1
     9     9    10    1
    10    10     1    1
    11     1     2   ar
    12     2     3   ar
    13     3     4   ar
    14     4    21    1
    15    21    22   ar
    16    22    23   ar
    17    23    24   ar
    18    24    25   ar
    19    25    27    1
    20    27    28    1
    21    27    29    1
    22    27    30    1
    23    25    26   ar
    24     4     5   ar
    25    10    11    1
    26    11    12    1
    27    12     7    1
    28     5     1   ar
    29    26    21   ar
    30    15    16    1
    31    19    20    1
    32     5     6    1
@<TRIPOS>MOLECULE
*****
 30 32 0 0 0
SMALL
GASTEIGER

@<TRIPOS>ATOM
      1 C         140.0332  138.9362  162.6808 C.ar    1  UNL1        0.1166
      2 N         138.7677  138.3643  163.2478 N.ar    1  UNL1       -0.2296
      3 C         138.5805  138.9281  164.6252 C.ar    1  UNL1        0.1171
      4 C         139.7303  139.8485  164.9095 C.ar    1  UNL1        0.0768
      5 N         140.6281  139.8535  163.7078 N.ar    1  UNL1       -0.3408
      6 H         141.4615  140.3684  163.6103 H       1  UNL1        0.1671
      7 C         141.7443  138.0549  158.6132 C.3     1  UNL1        0.0765
      8 C         142.6097  137.9364  159.8327 C.3     1  UNL1        0.0095
      9 C         142.0393  138.2302  161.1885 C.3     1  UNL1        0.0080
     10 C         140.6036  138.6425  161.3250 C.3     1  UNL1        0.0567
     11 C         139.7382  138.7609  160.1055 C.3     1  UNL1        0.0080
     12 C         140.3086  138.4672  158.7497 C.3     1  UNL1        0.0095
     13 O         143.6531  138.3168  156.8703 O.2     1  UNL1       -0.2751
     14 C         142.3147  137.7612  157.2574 C.2     1  UNL1        0.2220
     15 N         141.5467  136.9117  156.2886 N.am    1  UNL1       -0.3020
     16 H         140.6682  136.5470  156.5426 H       1  UNL1        0.1495
     17 C         142.1171  136.6180  154.9327 C.3     1  UNL1        0.1213
     18 C         143.2351  135.6285  154.7877 C.3     1  UNL1        0.1583
     19 O         144.6303  136.0097  155.1857 O.3     1  UNL1       -0.3802
     20 H         144.9548  136.7088  154.5969 H       1  UNL1        0.2105
     21 C         139.9448  140.6271  166.1735 C.ar    1  UNL1        0.0171
     22 C         140.3638  142.0659  166.1062 C.ar    1  UNL1        0.0015
     23 C         140.5782  142.8444  167.3702 C.ar    1  UNL1       -0.0000
     24 C         140.3736  142.1843  168.7015 C.ar    1  UNL1        0.0039
     25 C         139.9547  140.7457  168.7688 C.ar    1  UNL1        0.0715
     26 C         139.7402  139.9670  167.5048 C.ar    1  UNL1        0.0053
     27 C         139.7501  140.0855  170.1002 C.3     1  UNL1        0.4186
     28 F         139.5455  139.4254  171.4315 F       1  UNL1       -0.1659
     29 F         138.3940  140.7181  170.2054 F       1  UNL1       -0.1659
     30 F         141.1061  139.4530  169.9948 F       1  UNL1       -0.1659
@<TRIPOS>BOND
     1    13    14    2
     2    14    15   am
     3    15    17    1
     4    17    18    1
     5    18    19    1
     6    14     7    1
     7     7     8    1
     8     8     9    1
     9     9    10    1
    10    10     1    1
    11     1     2   ar
    12     2     3   ar
    13     3     4   ar
    14     4    21    1
    15    21    22   ar
    16    22    23   ar
    17    23    24   ar
    18    24    25   ar
    19    25    27    1
    20    27    28    1
    21    27    29    1
    22    27    30    1
    23    25    26   ar
    24     4     5   ar
    25    10    11    1
    26    11    12    1
    27    12     7    1
    28     5     1   ar
    29    26    21   ar
    30    15    16    1
    31    19    20    1
    32     5     6    1
@<TRIPOS>MOLECULE
*****
 30 32 0 0 0
SMALL
GASTEIGER

@<TRIPOS>ATOM
      1 C         142.3749  143.5805  163.1190 C.ar    1  UNL1        0.1166
      2 N         143.7424  143.8538  163.6715 N.ar    1  UNL1       -0.2296
      3 C         143.8089  143.2733  165.0530 C.ar    1  UNL1        0.1171
      4 C         142.4824  142.6411  165.3544 C.ar    1  UNL1        0.0768
      5 N         141.5962  142.8310  164.1591 N.ar    1  UNL1       -0.3408
      6 H         140.6666  142.5186  164.0725 H       1  UNL1        0.1671
      7 C         140.8725  144.7957  159.0550 C.3     1  UNL1        0.0765
      8 C         141.9472  143.7565  159.1775 C.3     1  UNL1        0.0095
      9 C         142.4480  143.3514  160.5321 C.3     1  UNL1        0.0080
     10 C         141.8741  143.9856  161.7644 C.3     1  UNL1        0.0567
     11 C         140.7994  145.0247  161.6419 C.3     1  UNL1        0.0080
     12 C         140.2986  145.4298  160.2873 C.3     1  UNL1        0.0095
     13 O         139.3506  144.3579  156.9954 O.2     1  UNL1       -0.2751
     14 C         140.3717  145.2007  157.7004 C.2     1  UNL1        0.2220
     15 N         140.8920  146.4486  157.0507 N.am    1  UNL1       -0.3020
     16 H         141.5621  147.0017  157.5134 H       1  UNL1        0.1495
     17 C         140.3912  146.8536  155.6960 C.3     1  UNL1        0.1213
     18 C         138.9890  147.3620  155.5359 C.3     1  UNL1        0.1583
     19 O         137.9314  146.4736  154.9508 O.3     1  UNL1       -0.3802
     20 H         138.1432  146.2866  154.0229 H       1  UNL1        0.2105
     21 C         142.1078  141.9419  166.6275 C.ar    1  UNL1        0.0171
     22 C         142.5706  140.5367  166.8755 C.ar    1  UNL1        0.0015
     23 C         142.1960  139.8376  168.1486 C.ar    1  UNL1       -0.0000
     24 C         141.3587  140.5434  169.1736 C.ar    1  UNL1        0.0039
     25 C         140.8959  141.9485  168.9255 C.ar    1  UNL1        0.0715
     26 C         141.2705  142.6477  167.6524 C.ar    1  UNL1        0.0053
     27 C         140.0585  142.6544  169.9506 C.3     1  UNL1        0.4186
     28 F         139.2212  143.3603  170.9755 F       1  UNL1       -0.1659
     29 F         139.2926  141.3883  170.1967 F       1  UNL1       -0.1659
     30 F         140.8245  143.9204  169.7044 F       1  UNL1       -0.1659
@<TRIPOS>BOND
     1    13    14    2
     2    14    15   am
     3    15    17    1
     4    17    18    1
     5    18    19    1
     6    14     7    1
     7     7     8    1
     8     8     9    1
     9     9    10    1
    10    10     1    1
    11     1     2   ar
    12     2     3   ar
    13     3     4   ar
    14     4    21    1
    15    21    22   ar
    16    22    23   ar
    17    23    24   ar
    18    24    25   ar
    19    25    27    1
    20    27    28    1
    21    27    29    1
    22    27    30    1
    23    25    26   ar
    24     4     5   ar
    25    10    11    1
    26    11    12    1
    27    12     7    1
    28     5     1   ar
    29    26    21   ar
    30    15    16    1
    31    19    20    1
    32     5     6    1
@<TRIPOS>MOLECULE
*****
 30 32 0 0 0
SMALL
GASTEIGER

@<TRIPOS>ATOM
      1 C         140.9853  144.5714  162.6762 C.ar    1  UNL1        0.1166
      2 N         139.9635  145.6583  162.5201 N.ar    1  UNL1       -0.2296
      3 C         139.8976  146.0276  161.0678 C.ar    1  UNL1        0.1171
      4 C         140.8786  145.1688  160.3262 C.ar    1  UNL1        0.0768
      5 N         141.5509  144.2688  161.3203 N.ar    1  UNL1       -0.3408
      6 H         142.2420  143.5974  161.1182 H       1  UNL1        0.1671
      7 C         142.1496  142.5696  166.5346 C.3     1  UNL1        0.0765
      8 C         143.2011  142.9176  165.5232 C.3     1  UNL1        0.0095
      9 C         142.8130  143.5849  164.2370 C.3     1  UNL1        0.0080
     10 C         141.3734  143.9041  163.9623 C.3     1  UNL1        0.0567
     11 C         140.3218  143.5561  164.9738 C.3     1  UNL1        0.0080
     12 C         140.7099  142.8888  166.2599 C.3     1  UNL1        0.0095
     13 O         143.5747  142.5268  168.7065 O.2     1  UNL1       -0.2751
     14 C         142.5377  141.9023  167.8208 C.2     1  UNL1        0.2220
     15 N         141.8887  140.6106  168.2211 N.am    1  UNL1       -0.3020
     16 H         141.2081  140.2008  167.6398 H       1  UNL1        0.1495
     17 C         142.2768  139.9434  169.5073 C.3     1  UNL1        0.1213
     18 C         141.6122  140.3447  170.7908 C.3     1  UNL1        0.1583
     19 O         142.4442  140.7404  171.9745 O.3     1  UNL1       -0.3802
     20 H         142.9488  139.9728  172.2861 H       1  UNL1        0.2105
     21 C         141.1413  145.2038  158.8498 C.ar    1  UNL1        0.0171
     22 C         142.2135  144.3376  158.2580 C.ar    1  UNL1        0.0015
     23 C         142.4762  144.3726  156.7817 C.ar    1  UNL1       -0.0000
     24 C         141.6667  145.2738  155.8971 C.ar    1  UNL1        0.0039
     25 C         140.5945  146.1399  156.4888 C.ar    1  UNL1        0.0715
     26 C         140.3318  146.1049  157.9652 C.ar    1  UNL1        0.0053
     27 C         139.7850  147.0412  155.6041 C.3     1  UNL1        0.4186
     28 F         138.9755  147.9424  154.7195 F       1  UNL1       -0.1659
     29 F         140.5096  146.5120  154.4020 F       1  UNL1       -0.1659
     30 F         139.0604  147.5702  156.8063 F       1  UNL1       -0.1659
@<TRIPOS>BOND
     1    13    14    2
     2    14    15   am
     3    15    17    1
     4    17    18    1
     5    18    19    1
     6    14     7    1
     7     7     8    1
     8     8     9    1
     9     9    10    1
    10    10     1    1
    11     1     2   ar
    12     2     3   ar
    13     3     4   ar
    14     4    21    1
    15    21    22   ar
    16    22    23   ar
    17    23    24   ar
    18    24    25   ar
    19    25    27    1
    20    27    28    1
    21    27    29    1
    22    27    30    1
    23    25    26   ar
    24     4     5   ar
    25    10    11    1
    26    11    12    1
    27    12     7    1
    28     5     1   ar
    29    26    21   ar
    30    15    16    1
    31    19    20    1
    32     5     6    1
@<TRIPOS>MOLECULE
*****
 30 32 0 0 0
SMALL
GASTEIGER

@<TRIPOS>ATOM
      1 C         141.0238  141.4739  163.1226 C.ar    1  UNL1        0.1166
      2 N         140.2288  142.7414  163.2300 N.ar    1  UNL1       -0.2296
      3 C         140.3567  143.2512  164.6349 C.ar    1  UNL1        0.1171
      4 C         141.2307  142.2988  165.3958 C.ar    1  UNL1        0.0768
      5 N         141.6430  141.2004  164.4612 N.ar    1  UNL1       -0.3408
      6 H         142.2189  140.4344  164.6867 H       1  UNL1        0.1671
      7 C         141.4722  138.9374  159.4328 C.3     1  UNL1        0.0765
      8 C         141.1170  140.3892  159.3063 C.3     1  UNL1        0.0095
      9 C         140.9675  141.2347  160.5362 C.3     1  UNL1        0.0080
     10 C         141.1732  140.6284  161.8927 C.3     1  UNL1        0.0567
     11 C         141.5284  139.1766  162.0192 C.3     1  UNL1        0.0080
     12 C         141.6779  138.3311  160.7893 C.3     1  UNL1        0.0095
     13 O         140.4144  137.7326  157.3884 O.2     1  UNL1       -0.2751
     14 C         141.6217  138.0919  158.2028 C.2     1  UNL1        0.2220
     15 N         142.9785  137.6056  157.7873 N.am    1  UNL1       -0.3020
     16 H         143.7709  137.8414  158.3219 H       1  UNL1        0.1495
     17 C         143.1279  136.7601  156.5574 C.3     1  UNL1        0.1213
     18 C         143.0838  135.2646  156.6654 C.3     1  UNL1        0.1583
     19 O         144.2872  134.4500  156.2936 O.3     1  UNL1       -0.3802
     20 H         144.4567  134.5391  155.3427 H       1  UNL1        0.2105
     21 C         141.6236  142.4230  166.8381 C.ar    1  UNL1        0.0171
     22 C         143.0458  142.1851  167.2513 C.ar    1  UNL1        0.0015
     23 C         143.4385  142.3093  168.6936 C.ar    1  UNL1       -0.0000
     24 C         142.4091  142.6714  169.7227 C.ar    1  UNL1        0.0039
     25 C         140.9870  142.9094  169.3096 C.ar    1  UNL1        0.0715
     26 C         140.5942  142.7852  167.8673 C.ar    1  UNL1        0.0053
     27 C         139.9575  143.2716  170.3388 C.3     1  UNL1        0.4186
     28 F         138.9280  143.6338  171.3679 F       1  UNL1       -0.1659
     29 F         140.2530  144.7262  170.1223 F       1  UNL1       -0.1659
     30 F         139.6621  141.8169  170.5551 F       1  UNL1       -0.1659
@<TRIPOS>BOND
     1    13    14    2
     2    14    15   am
     3    15    17    1
     4    17    18    1
     5    18    19    1
     6    14     7    1
     7     7     8    1
     8     8     9    1
     9     9    10    1
    10    10     1    1
    11     1     2   ar
    12     2     3   ar
    13     3     4   ar
    14     4    21    1
    15    21    22   ar
    16    22    23   ar
    17    23    24   ar
    18    24    25   ar
    19    25    27    1
    20    27    28    1
    21    27    29    1
    22    27    30    1
    23    25    26   ar
    24     4     5   ar
    25    10    11    1
    26    11    12    1
    27    12     7    1
    28     5     1   ar
    29    26    21   ar
    30    15    16    1
    31    19    20    1
    32     5     6    1
@<TRIPOS>MOLECULE
*****
 30 32 0 0 0
SMALL
GASTEIGER

@<TRIPOS>ATOM
      1 C         139.9244  142.0386  163.6926 C.ar    1  UNL1        0.1166
      2 N         139.1443  140.7595  163.7657 N.ar    1  UNL1       -0.2296
      3 C         139.1436  140.2979  165.1929 C.ar    1  UNL1        0.1171
      4 C         139.9234  141.2917  166.0019 C.ar    1  UNL1        0.0768
      5 N         140.4059  142.3675  165.0746 N.ar    1  UNL1       -0.3408
      6 H         140.9442  143.1518  165.3285 H       1  UNL1        0.1671
      7 C         140.6865  144.4634  159.9791 C.3     1  UNL1        0.0765
      8 C         141.4056  144.7961  161.2528 C.3     1  UNL1        0.0095
      9 C         141.1516  143.9878  162.4906 C.3     1  UNL1        0.0080
     10 C         140.1785  142.8469  162.4547 C.3     1  UNL1        0.0567
     11 C         139.4594  142.5142  161.1811 C.3     1  UNL1        0.0080
     12 C         139.7135  143.3224  159.9433 C.3     1  UNL1        0.0095
     13 O         142.2813  145.9078  158.5230 O.2     1  UNL1       -0.2751
     14 C         140.9406  145.2716  158.7413 C.2     1  UNL1        0.2220
     15 N         139.8539  145.4437  157.7218 N.am    1  UNL1       -0.3020
     16 H         138.9739  145.0261  157.8650 H       1  UNL1        0.1495
     17 C         140.1079  146.2519  156.4839 C.3     1  UNL1        0.1213
     18 C         139.0852  147.2426  156.0121 C.3     1  UNL1        0.1583
     19 O         138.1493  146.8809  154.8970 O.3     1  UNL1       -0.3802
     20 H         138.6536  146.7649  154.0765 H       1  UNL1        0.2105
     21 C         140.1762  141.2220  167.4787 C.ar    1  UNL1        0.0171
     22 C         139.4431  140.2184  168.3186 C.ar    1  UNL1        0.0015
     23 C         139.6959  140.1487  169.7955 C.ar    1  UNL1       -0.0000
     24 C         140.6819  141.0826  170.4325 C.ar    1  UNL1        0.0039
     25 C         141.4150  142.0861  169.5926 C.ar    1  UNL1        0.0715
     26 C         141.1622  142.1558  168.1157 C.ar    1  UNL1        0.0053
     27 C         142.4010  143.0200  170.2296 C.3     1  UNL1        0.4186
     28 F         143.3870  143.9539  170.8666 F       1  UNL1       -0.1659
     29 F         141.3881  144.1252  170.1772 F       1  UNL1       -0.1659
     30 F         143.4139  141.9149  170.2820 F       1  UNL1       -0.1659
@<TRIPOS>BOND
     1    13    14    2
     2    14    15   am
     3    15    17    1
     4    17    18    1
     5    18    19    1
     6    14     7    1
     7     7     8    1
     8     8     9    1
     9     9    10    1
    10    10     1    1
    11     1     2   ar
    12     2     3   ar
    13     3     4   ar
    14     4    21    1
    15    21    22   ar
    16    22    23   ar
    17    23    24   ar
    18    24    25   ar
    19    25    27    1
    20    27    28    1
    21    27    29    1
    22    27    30    1
    23    25    26   ar
    24     4     5   ar
    25    10    11    1
    26    11    12    1
    27    12     7    1
    28     5     1   ar
    29    26    21   ar
    30    15    16    1
    31    19    20    1
    32     5     6    1
@<TRIPOS>MOLECULE
*****
 30 32 0 0 0
SMALL
GASTEIGER

@<TRIPOS>ATOM
      1 C         143.0272  140.4552  163.5125 C.ar    1  UNL1        0.1166
      2 N         143.7965  141.6882  163.8838 N.ar    1  UNL1       -0.2296
      3 C         143.6150  141.9226  165.3542 C.ar    1  UNL1        0.1171
      4 C         142.7336  140.8344  165.8917 C.ar    1  UNL1        0.0768
      5 N         142.3703  139.9275  164.7535 N.ar    1  UNL1       -0.3408
      6 H         141.8007  139.1266  164.8109 H       1  UNL1        0.1671
      7 C         142.7405  138.6552  159.3982 C.3     1  UNL1        0.0765
      8 C         143.2837  137.8428  160.5361 C.3     1  UNL1        0.0095
      9 C         143.3793  138.4428  161.9075 C.3     1  UNL1        0.0080
     10 C         142.9316  139.8552  162.1411 C.3     1  UNL1        0.0567
     11 C         142.3884  140.6676  161.0032 C.3     1  UNL1        0.0080
     12 C         142.2929  140.0676  159.6317 C.3     1  UNL1        0.0095
     13 O         142.3393  138.9281  156.8458 O.2     1  UNL1       -0.2751
     14 C         142.6449  138.0552  158.0267 C.2     1  UNL1        0.2220
     15 N         142.8549  136.5823  157.8362 N.am    1  UNL1       -0.3020
     16 H         143.0555  136.0093  158.6113 H       1  UNL1        0.1495
     17 C         142.7593  135.9823  156.4647 C.3     1  UNL1        0.1213
     18 C         143.9955  135.8144  155.6317 C.3     1  UNL1        0.1583
     19 O         144.8427  137.0064  155.2982 O.3     1  UNL1       -0.3802
     20 H         144.3421  137.6090  154.7262 H       1  UNL1        0.2105
     21 C         142.2928  140.6802  167.3172 C.ar    1  UNL1        0.0171
     22 C         142.6389  139.4351  168.0788 C.ar    1  UNL1        0.0015
     23 C         142.1981  139.2809  169.5041 C.ar    1  UNL1       -0.0000
     24 C         141.4112  140.3718  170.1680 C.ar    1  UNL1        0.0039
     25 C         141.0651  141.6168  169.4065 C.ar    1  UNL1        0.0715
     26 C         141.5059  141.7711  167.9811 C.ar    1  UNL1        0.0053
     27 C         140.2781  142.7078  170.0704 C.3     1  UNL1        0.4186
     28 F         139.4911  143.7987  170.7342 F       1  UNL1       -0.1659
     29 F         139.1172  141.7717  170.2324 F       1  UNL1       -0.1659
     30 F         141.4390  143.6438  169.9084 F       1  UNL1       -0.1659
@<TRIPOS>BOND
     1    13    14    2
     2    14    15   am
     3    15    17    1
     4    17    18    1
     5    18    19    1
     6    14     7    1
     7     7     8    1
     8     8     9    1
     9     9    10    1
    10    10     1    1
    11     1     2   ar
    12     2     3   ar
    13     3     4   ar
    14     4    21    1
    15    21    22   ar
    16    22    23   ar
    17    23    24   ar
    18    24    25   ar
    19    25    27    1
    20    27    28    1
    21    27    29    1
    22    27    30    1
    23    25    26   ar
    24     4     5   ar
    25    10    11    1
    26    11    12    1
    27    12     7    1
    28     5     1   ar
    29    26    21   ar
    30    15    16    1
    31    19    20    1
    32     5     6    1
