@<TRIPOS>MOLECULE
*****
 33 37 0 0 0
SMALL
GASTEIGER

@<TRIPOS>ATOM
      1 C         142.9488  142.2527  165.3617 C.ar    1  UNL1        0.0291
      2 C         142.2434  141.4273  164.3268 C.ar    1  UNL1        0.0053
      3 C         142.7750  141.3670  162.9255 C.ar    1  UNL1        0.0352
      4 C         144.0121  142.1321  162.5591 C.ar    1  UNL1        0.0850
      5 C         144.7175  142.9576  163.5940 C.ar    1  UNL1        0.0488
      6 C         144.1858  143.0179  164.9952 C.ar    1  UNL1        0.1416
      7 F         144.8912  143.8434  166.0302 F       1  UNL1       -0.2041
      8 N         144.5437  142.0718  161.1577 N.ar    1  UNL1       -0.2422
      9 C         143.8383  141.2463  160.1229 C.ar    1  UNL1        0.1175
     10 C         142.6013  140.4811  160.4893 C.ar    1  UNL1        0.0989
     11 C         142.0697  140.5415  161.8906 C.ar    1  UNL1        0.0826
     12 N         140.8388  139.6867  161.9566 N.ar    1  UNL1       -0.2817
     13 C         140.6097  139.0981  160.5961 C.ar    1  UNL1        0.3316
     14 O         139.4882  138.1797  160.2101 O.2     1  UNL1       -0.2463
     15 N         141.6990  139.5891  159.6892 N.ar    1  UNL1       -0.2765
     16 C         141.8581  139.2479  158.2371 C.3     1  UNL1        0.1352
     17 C         141.3539  142.4338  169.5658 C.ar    1  UNL1        0.0888
     18 C         140.4324  142.6582  168.4037 C.ar    1  UNL1        0.0173
     19 C         140.9640  142.5979  167.0023 C.ar    1  UNL1        0.0029
     20 C         142.4171  142.3131  166.7631 C.ar    1  UNL1        0.0213
     21 C         143.3387  142.0886  167.9251 C.ar    1  UNL1        0.0986
     22 N         142.8071  142.1490  169.3264 N.ar    1  UNL1       -0.2457
     23 C         140.8223  142.4941  170.9671 C.3     1  UNL1        0.1876
     24 C         140.2039  139.9711  170.9195 C.3     1  UNL1        0.1747
     25 O         140.4741  141.2281  171.6922 O.3     1  UNL1       -0.3447
     26 C         139.9866  139.4603  163.1701 C.3     1  UNL1        0.0900
     27 C         140.1088  138.1815  163.9444 C.3     1  UNL1        0.0252
     28 C         139.2566  137.9551  165.1579 C.3     1  UNL1        0.0315
     29 C         138.2822  139.0076  165.5970 C.3     1  UNL1        0.1155
     30 C         138.1601  140.2865  164.8227 C.3     1  UNL1        0.0315
     31 C         139.0123  140.5129  163.6093 C.3     1  UNL1        0.0252
     32 O         137.4301  138.7812  166.8105 O.3     1  UNL1       -0.3536
     33 C         137.1403  137.3841  167.2735 C.3     1  UNL1        0.1740
@<TRIPOS>BOND
     1    24    25    1
     2    25    23    1
     3    23    17    1
     4    17    18   ar
     5    18    19   ar
     6    19    20   ar
     7    20     1    1
     8     1     2   ar
     9     2     3   ar
    10     3     4   ar
    11     4     5   ar
    12     5     6   ar
    13     6     7    1
    14     4     8   ar
    15     8     9   ar
    16     9    10   ar
    17    10    11   ar
    18    11    12   ar
    19    26    12    1
    20    26    27    1
    21    27    28    1
    22    28    29    1
    23    29    32    1
    24    32    33    1
    25    29    30    1
    26    30    31    1
    27    12    13   ar
    28    13    14    2
    29    13    15   ar
    30    15    16    1
    31    20    21   ar
    32    21    22   ar
    33    22    17   ar
    34     6     1   ar
    35    15    10   ar
    36    11     3   ar
    37    31    26    1
@<TRIPOS>MOLECULE
*****
 33 37 0 0 0
SMALL
GASTEIGER

@<TRIPOS>ATOM
      1 C         140.1902  138.7969  163.8630 C.ar    1  UNL1        0.0291
      2 C         140.9215  139.6256  164.8771 C.ar    1  UNL1        0.0053
      3 C         140.3781  139.7595  166.2687 C.ar    1  UNL1        0.0352
      4 C         139.1034  139.0648  166.6463 C.ar    1  UNL1        0.0850
      5 C         138.3721  138.2361  165.6322 C.ar    1  UNL1        0.0488
      6 C         138.9155  138.1022  164.2405 C.ar    1  UNL1        0.1416
      7 F         138.1842  137.2734  163.2263 F       1  UNL1       -0.2041
      8 N         138.5600  139.1988  168.0380 N.ar    1  UNL1       -0.2422
      9 C         139.2913  140.0275  169.0521 C.ar    1  UNL1        0.1175
     10 C         140.5659  140.7222  168.6746 C.ar    1  UNL1        0.0989
     11 C         141.1094  140.5883  167.2829 C.ar    1  UNL1        0.0826
     12 N         142.3787  141.3833  167.2024 N.ar    1  UNL1       -0.2817
     13 C         142.6198  142.0087  168.5443 C.ar    1  UNL1        0.3316
     14 O         143.7781  142.8883  168.9118 O.2     1  UNL1       -0.2463
     15 N         141.4995  141.6001  169.4541 N.ar    1  UNL1       -0.2765
     16 C         141.3406  141.9994  170.8914 C.3     1  UNL1        0.1352
     17 C         141.8203  138.3949  159.6878 C.ar    1  UNL1        0.0888
     18 C         142.6489  137.9631  160.8613 C.ar    1  UNL1        0.0173
     19 C         142.1055  138.0971  162.2530 C.ar    1  UNL1        0.0029
     20 C         140.7336  138.6629  162.4713 C.ar    1  UNL1        0.0213
     21 C         139.9050  139.0947  161.2978 C.ar    1  UNL1        0.0986
     22 N         140.4483  138.9607  159.9061 N.ar    1  UNL1       -0.2457
     23 C         142.3636  138.2609  158.2962 C.3     1  UNL1        0.1876
     24 C         143.2440  136.7211  156.3978 C.3     1  UNL1        0.1747
     25 O         142.9829  136.9682  157.8541 O.3     1  UNL1       -0.3447
     26 C         143.2534  141.5277  165.9924 C.3     1  UNL1        0.0900
     27 C         143.9324  140.3237  165.4098 C.3     1  UNL1        0.0252
     28 C         144.8071  140.4681  164.1998 C.3     1  UNL1        0.0315
     29 C         145.0027  141.8165  163.5724 C.3     1  UNL1        0.1155
     30 C         144.3237  143.0204  164.1550 C.3     1  UNL1        0.0315
     31 C         143.4491  142.8761  165.3650 C.3     1  UNL1        0.0252
     32 O         145.8774  141.9609  162.3624 O.3     1  UNL1       -0.3536
     33 C         145.3059  142.4974  161.0835 C.3     1  UNL1        0.1740
@<TRIPOS>BOND
     1    24    25    1
     2    25    23    1
     3    23    17    1
     4    17    18   ar
     5    18    19   ar
     6    19    20   ar
     7    20     1    1
     8     1     2   ar
     9     2     3   ar
    10     3     4   ar
    11     4     5   ar
    12     5     6   ar
    13     6     7    1
    14     4     8   ar
    15     8     9   ar
    16     9    10   ar
    17    10    11   ar
    18    11    12   ar
    19    26    12    1
    20    26    27    1
    21    27    28    1
    22    28    29    1
    23    29    32    1
    24    32    33    1
    25    29    30    1
    26    30    31    1
    27    12    13   ar
    28    13    14    2
    29    13    15   ar
    30    15    16    1
    31    20    21   ar
    32    21    22   ar
    33    22    17   ar
    34     6     1   ar
    35    15    10   ar
    36    11     3   ar
    37    31    26    1
@<TRIPOS>MOLECULE
*****
 33 37 0 0 0
SMALL
GASTEIGER

@<TRIPOS>ATOM
      1 C         139.8308  143.3059  164.8148 C.ar    1  UNL1        0.0291
      2 C         140.7844  142.9784  163.7042 C.ar    1  UNL1        0.0053
      3 C         140.7150  143.7324  162.4094 C.ar    1  UNL1        0.0352
      4 C         139.6921  144.8140  162.2252 C.ar    1  UNL1        0.0850
      5 C         138.7385  145.1414  163.3358 C.ar    1  UNL1        0.0488
      6 C         138.8079  144.3874  164.6306 C.ar    1  UNL1        0.1416
      7 F         137.8543  144.7148  165.7412 F       1  UNL1       -0.2041
      8 N         139.6227  145.5680  160.9303 N.ar    1  UNL1       -0.2422
      9 C         140.5763  145.2405  159.8197 C.ar    1  UNL1        0.1175
     10 C         141.5992  144.1590  160.0039 C.ar    1  UNL1        0.0989
     11 C         141.6686  143.4050  161.2987 C.ar    1  UNL1        0.0826
     12 N         142.7753  142.3983  161.1902 N.ar    1  UNL1       -0.2817
     13 C         143.3899  142.5302  159.8283 C.ar    1  UNL1        0.3316
     14 O         144.5311  141.7167  159.2935 O.2     1  UNL1       -0.2463
     15 N         142.6631  143.6184  159.0951 N.ar    1  UNL1       -0.2765
     16 C         142.9498  144.0842  157.6983 C.3     1  UNL1        0.1352
     17 C         140.0388  141.0437  168.6994 C.ar    1  UNL1        0.0888
     18 C         140.4268  142.4919  168.6531 C.ar    1  UNL1        0.0173
     19 C         140.3574  143.2460  167.3583 C.ar    1  UNL1        0.0029
     20 C         139.9002  142.5518  166.1097 C.ar    1  UNL1        0.0213
     21 C         139.5122  141.1036  166.1559 C.ar    1  UNL1        0.0986
     22 N         139.5816  140.3495  167.4507 N.ar    1  UNL1       -0.2457
     23 C         140.1082  140.2897  169.9942 C.3     1  UNL1        0.1876
     24 C         142.5892  139.5199  169.9507 C.3     1  UNL1        0.1747
     25 O         141.1387  139.2161  170.1826 O.3     1  UNL1       -0.3447
     26 C         143.1939  141.4298  162.2564 C.3     1  UNL1        0.0900
     27 C         142.5420  140.0817  162.3430 C.3     1  UNL1        0.0252
     28 C         142.9606  139.1132  163.4092 C.3     1  UNL1        0.0315
     29 C         144.0312  139.4929  164.3889 C.3     1  UNL1        0.1155
     30 C         144.6831  140.8410  164.3023 C.3     1  UNL1        0.0315
     31 C         144.2645  141.8095  163.2361 C.3     1  UNL1        0.0252
     32 O         144.4498  138.5244  165.4550 O.3     1  UNL1       -0.3536
     33 C         143.5425  138.2507  166.6179 C.3     1  UNL1        0.1740
@<TRIPOS>BOND
     1    24    25    1
     2    25    23    1
     3    23    17    1
     4    17    18   ar
     5    18    19   ar
     6    19    20   ar
     7    20     1    1
     8     1     2   ar
     9     2     3   ar
    10     3     4   ar
    11     4     5   ar
    12     5     6   ar
    13     6     7    1
    14     4     8   ar
    15     8     9   ar
    16     9    10   ar
    17    10    11   ar
    18    11    12   ar
    19    26    12    1
    20    26    27    1
    21    27    28    1
    22    28    29    1
    23    29    32    1
    24    32    33    1
    25    29    30    1
    26    30    31    1
    27    12    13   ar
    28    13    14    2
    29    13    15   ar
    30    15    16    1
    31    20    21   ar
    32    21    22   ar
    33    22    17   ar
    34     6     1   ar
    35    15    10   ar
    36    11     3   ar
    37    31    26    1
@<TRIPOS>MOLECULE
*****
 33 37 0 0 0
SMALL
GASTEIGER

@<TRIPOS>ATOM
      1 C         143.1505  141.7256  163.8420 C.ar    1  UNL1        0.0291
      2 C         142.0286  141.0997  164.6162 C.ar    1  UNL1        0.0053
      3 C         141.9077  141.3437  166.0912 C.ar    1  UNL1        0.0352
      4 C         142.9088  142.2136  166.7921 C.ar    1  UNL1        0.0850
      5 C         144.0307  142.8395  166.0179 C.ar    1  UNL1        0.0488
      6 C         144.1516  142.5955  164.5428 C.ar    1  UNL1        0.1416
      7 F         145.2736  143.2214  163.7685 F       1  UNL1       -0.2041
      8 N         142.7878  142.4575  168.2672 N.ar    1  UNL1       -0.2422
      9 C         141.6659  141.8317  169.0414 C.ar    1  UNL1        0.1175
     10 C         140.6648  140.9618  168.3406 C.ar    1  UNL1        0.0989
     11 C         140.7857  140.7178  166.8655 C.ar    1  UNL1        0.0826
     12 N         139.6574  139.8211  166.4499 N.ar    1  UNL1       -0.2817
     13 C         138.8391  139.5109  167.6682 C.ar    1  UNL1        0.3316
     14 O         137.6133  138.6472  167.7106 O.2     1  UNL1       -0.2463
     15 N         139.4617  140.2158  168.8367 N.ar    1  UNL1       -0.2765
     16 C         138.9680  140.1810  170.2527 C.3     1  UNL1        0.1352
     17 C         143.5133  140.9937  159.4167 C.ar    1  UNL1        0.0888
     18 C         143.9469  139.9376  160.3895 C.ar    1  UNL1        0.0173
     19 C         143.8260  140.1815  161.8647 C.ar    1  UNL1        0.0029
     20 C         143.2714  141.4816  162.3668 C.ar    1  UNL1        0.0213
     21 C         142.8378  142.5378  161.3940 C.ar    1  UNL1        0.0986
     22 N         142.9587  142.2939  159.9189 N.ar    1  UNL1       -0.2457
     23 C         143.6342  140.7498  157.9416 C.3     1  UNL1        0.1876
     24 C         145.6327  140.9254  156.2908 C.3     1  UNL1        0.1747
     25 O         144.9050  140.1886  157.3759 O.3     1  UNL1       -0.3447
     26 C         139.3936  139.3222  165.0602 C.3     1  UNL1        0.0900
     27 C         140.0393  138.0553  164.5829 C.3     1  UNL1        0.0252
     28 C         139.7755  137.5564  163.1931 C.3     1  UNL1        0.0315
     29 C         138.8659  138.3245  162.2806 C.3     1  UNL1        0.1155
     30 C         138.2202  139.5915  162.7578 C.3     1  UNL1        0.0315
     31 C         138.4840  140.0904  164.1476 C.3     1  UNL1        0.0252
     32 O         138.6022  137.8256  160.8908 O.3     1  UNL1       -0.3536
     33 C         139.3089  138.4487  159.7235 C.3     1  UNL1        0.1740
@<TRIPOS>BOND
     1    24    25    1
     2    25    23    1
     3    23    17    1
     4    17    18   ar
     5    18    19   ar
     6    19    20   ar
     7    20     1    1
     8     1     2   ar
     9     2     3   ar
    10     3     4   ar
    11     4     5   ar
    12     5     6   ar
    13     6     7    1
    14     4     8   ar
    15     8     9   ar
    16     9    10   ar
    17    10    11   ar
    18    11    12   ar
    19    26    12    1
    20    26    27    1
    21    27    28    1
    22    28    29    1
    23    29    32    1
    24    32    33    1
    25    29    30    1
    26    30    31    1
    27    12    13   ar
    28    13    14    2
    29    13    15   ar
    30    15    16    1
    31    20    21   ar
    32    21    22   ar
    33    22    17   ar
    34     6     1   ar
    35    15    10   ar
    36    11     3   ar
    37    31    26    1
@<TRIPOS>MOLECULE
*****
 33 37 0 0 0
SMALL
GASTEIGER

@<TRIPOS>ATOM
      1 C         142.7136  142.5325  163.5033 C.ar    1  UNL1        0.0291
      2 C         141.7877  141.8189  164.4432 C.ar    1  UNL1        0.0053
      3 C         142.0570  141.8363  165.9186 C.ar    1  UNL1        0.0352
      4 C         143.2523  142.5673  166.4543 C.ar    1  UNL1        0.0850
      5 C         144.1783  143.2809  165.5144 C.ar    1  UNL1        0.0488
      6 C         143.9089  143.2635  164.0389 C.ar    1  UNL1        0.1416
      7 F         144.8349  143.9772  163.0990 F       1  UNL1       -0.2041
      8 N         143.5217  142.5847  167.9298 N.ar    1  UNL1       -0.2422
      9 C         142.5957  141.8711  168.8697 C.ar    1  UNL1        0.1175
     10 C         141.4004  141.1401  168.3341 C.ar    1  UNL1        0.0989
     11 C         141.1311  141.1227  166.8586 C.ar    1  UNL1        0.0826
     12 N         139.8831  140.3241  166.6245 N.ar    1  UNL1       -0.2817
     13 C         139.3812  139.8480  167.9555 C.ar    1  UNL1        0.3316
     14 O         138.1564  139.0139  168.1888 O.2     1  UNL1       -0.2463
     15 N         140.3189  140.3523  169.0120 N.ar    1  UNL1       -0.2765
     16 C         140.1966  140.1111  170.4875 C.3     1  UNL1        0.1352
     17 C         141.9056  142.4805  159.0767 C.ar    1  UNL1        0.0888
     18 C         142.1100  141.1920  159.8170 C.ar    1  UNL1        0.0173
     19 C         142.3793  141.2093  161.2925 C.ar    1  UNL1        0.0029
     20 C         142.4443  142.5152  162.0277 C.ar    1  UNL1        0.0213
     21 C         142.2399  143.8037  161.2875 C.ar    1  UNL1        0.0986
     22 N         141.9706  143.7863  159.8120 N.ar    1  UNL1       -0.2457
     23 C         141.6363  142.4631  157.6012 C.3     1  UNL1        0.1876
     24 C         139.1096  142.8605  158.0573 C.3     1  UNL1        0.1747
     25 O         140.2355  142.6330  157.0925 O.3     1  UNL1       -0.3447
     26 C         139.2485  140.0499  165.2934 C.3     1  UNL1        0.0900
     27 C         138.2857  141.0374  164.7037 C.3     1  UNL1        0.0252
     28 C         137.6511  140.7631  163.3726 C.3     1  UNL1        0.0315
     29 C         137.9794  139.5012  162.6310 C.3     1  UNL1        0.1155
     30 C         138.9422  138.5137  163.2206 C.3     1  UNL1        0.0315
     31 C         139.5768  138.7880  164.5518 C.3     1  UNL1        0.0252
     32 O         137.3448  139.2270  161.2998 O.3     1  UNL1       -0.3536
     33 C         137.8137  139.9627  160.0795 C.3     1  UNL1        0.1740
@<TRIPOS>BOND
     1    24    25    1
     2    25    23    1
     3    23    17    1
     4    17    18   ar
     5    18    19   ar
     6    19    20   ar
     7    20     1    1
     8     1     2   ar
     9     2     3   ar
    10     3     4   ar
    11     4     5   ar
    12     5     6   ar
    13     6     7    1
    14     4     8   ar
    15     8     9   ar
    16     9    10   ar
    17    10    11   ar
    18    11    12   ar
    19    26    12    1
    20    26    27    1
    21    27    28    1
    22    28    29    1
    23    29    32    1
    24    32    33    1
    25    29    30    1
    26    30    31    1
    27    12    13   ar
    28    13    14    2
    29    13    15   ar
    30    15    16    1
    31    20    21   ar
    32    21    22   ar
    33    22    17   ar
    34     6     1   ar
    35    15    10   ar
    36    11     3   ar
    37    31    26    1
@<TRIPOS>MOLECULE
*****
 33 37 0 0 0
SMALL
GASTEIGER

@<TRIPOS>ATOM
      1 C         140.4539  143.2082  163.5751 C.ar    1  UNL1        0.0291
      2 C         141.1779  142.0973  164.2763 C.ar    1  UNL1        0.0053
      3 C         141.0881  141.9677  165.7679 C.ar    1  UNL1        0.0352
      4 C         140.2743  142.9489  166.5584 C.ar    1  UNL1        0.0850
      5 C         139.5503  144.0598  165.8573 C.ar    1  UNL1        0.0488
      6 C         139.6401  144.1895  164.3656 C.ar    1  UNL1        0.1416
      7 F         138.9161  145.3004  163.6644 F       1  UNL1       -0.2041
      8 N         140.1845  142.8192  168.0502 N.ar    1  UNL1       -0.2422
      9 C         140.9085  141.7083  168.7513 C.ar    1  UNL1        0.1175
     10 C         141.7223  140.7270  167.9608 C.ar    1  UNL1        0.0989
     11 C         141.8121  140.8567  166.4692 C.ar    1  UNL1        0.0826
     12 N         142.6842  139.7480  165.9591 N.ar    1  UNL1       -0.2817
     13 C         143.1335  138.9331  167.1356 C.ar    1  UNL1        0.3316
     14 O         144.0214  137.7252  167.0840 O.2     1  UNL1       -0.2463
     15 N         142.5389  139.5382  168.3727 N.ar    1  UNL1       -0.2765
     16 C         142.7279  139.0415  169.7755 C.3     1  UNL1        0.1352
     17 C         140.7232  143.5974  159.1000 C.ar    1  UNL1        0.0888
     18 C         141.9744  143.5672  159.9268 C.ar    1  UNL1        0.0173
     19 C         141.8846  143.4375  161.4186 C.ar    1  UNL1        0.0029
     20 C         140.5437  143.3379  162.0834 C.ar    1  UNL1        0.0213
     21 C         139.2925  143.3681  161.2565 C.ar    1  UNL1        0.0986
     22 N         139.3823  143.4978  159.7649 N.ar    1  UNL1       -0.2457
     23 C         140.8129  143.7271  157.6083 C.3     1  UNL1        0.1876
     24 C         140.1451  146.2285  157.3910 C.3     1  UNL1        0.1747
     25 O         140.0556  144.8128  156.9031 O.3     1  UNL1       -0.3447
     26 C         143.0440  139.4981  164.5245 C.3     1  UNL1        0.0900
     27 C         144.1057  140.3254  163.8624 C.3     1  UNL1        0.0252
     28 C         144.4654  140.0755  162.4278 C.3     1  UNL1        0.0315
     29 C         143.7634  138.9982  161.6553 C.3     1  UNL1        0.1155
     30 C         142.7018  138.1709  162.3174 C.3     1  UNL1        0.0315
     31 C         142.3420  138.4208  163.7520 C.3     1  UNL1        0.0252
     32 O         144.1232  138.7483  160.2207 O.3     1  UNL1       -0.3536
     33 C         143.0585  138.7778  159.1643 C.3     1  UNL1        0.1740
@<TRIPOS>BOND
     1    24    25    1
     2    25    23    1
     3    23    17    1
     4    17    18   ar
     5    18    19   ar
     6    19    20   ar
     7    20     1    1
     8     1     2   ar
     9     2     3   ar
    10     3     4   ar
    11     4     5   ar
    12     5     6   ar
    13     6     7    1
    14     4     8   ar
    15     8     9   ar
    16     9    10   ar
    17    10    11   ar
    18    11    12   ar
    19    26    12    1
    20    26    27    1
    21    27    28    1
    22    28    29    1
    23    29    32    1
    24    32    33    1
    25    29    30    1
    26    30    31    1
    27    12    13   ar
    28    13    14    2
    29    13    15   ar
    30    15    16    1
    31    20    21   ar
    32    21    22   ar
    33    22    17   ar
    34     6     1   ar
    35    15    10   ar
    36    11     3   ar
    37    31    26    1
@<TRIPOS>MOLECULE
*****
 33 37 0 0 0
SMALL
GASTEIGER

@<TRIPOS>ATOM
      1 C         143.3622  141.4035  164.3313 C.ar    1  UNL1        0.0291
      2 C         142.2491  141.0282  163.3984 C.ar    1  UNL1        0.0053
      3 C         142.4219  141.1979  161.9181 C.ar    1  UNL1        0.0352
      4 C         143.7077  141.7429  161.3707 C.ar    1  UNL1        0.0850
      5 C         144.8207  142.1182  162.3036 C.ar    1  UNL1        0.0488
      6 C         144.6480  141.9485  163.7839 C.ar    1  UNL1        0.1416
      7 F         145.7610  142.3238  164.7168 F       1  UNL1       -0.2041
      8 N         143.8805  141.9126  159.8903 N.ar    1  UNL1       -0.2422
      9 C         142.7674  141.5373  158.9575 C.ar    1  UNL1        0.1175
     10 C         141.4816  140.9923  159.5049 C.ar    1  UNL1        0.0989
     11 C         141.3089  140.8226  160.9852 C.ar    1  UNL1        0.0826
     12 N         139.9383  140.2648  161.2310 N.ar    1  UNL1       -0.2817
     13 C         139.2640  140.0898  159.9026 C.ar    1  UNL1        0.3316
     14 O         137.8790  139.5584  159.6801 O.2     1  UNL1       -0.2463
     15 N         140.2178  140.5394  158.8358 N.ar    1  UNL1       -0.2765
     16 C         139.9542  140.5366  157.3591 C.3     1  UNL1        0.1352
     17 C         142.8440  140.8944  168.7723 C.ar    1  UNL1        0.0888
     18 C         142.7031  139.7119  167.8604 C.ar    1  UNL1        0.0173
     19 C         142.8758  139.8816  166.3800 C.ar    1  UNL1        0.0029
     20 C         143.1894  141.2338  165.8117 C.ar    1  UNL1        0.0213
     21 C         143.3303  142.4164  166.7236 C.ar    1  UNL1        0.0986
     22 N         143.1576  142.2467  168.2039 N.ar    1  UNL1       -0.2457
     23 C         142.6712  140.7248  170.2526 C.3     1  UNL1        0.1876
     24 C         140.4961  142.0539  170.7550 C.3     1  UNL1        0.1747
     25 O         141.9391  141.7658  171.0464 O.3     1  UNL1       -0.3447
     26 C         139.3461  139.9392  162.5701 C.3     1  UNL1        0.0900
     27 C         138.6480  141.0057  163.3609 C.3     1  UNL1        0.0252
     28 C         138.0558  140.6801  164.7000 C.3     1  UNL1        0.0315
     29 C         138.1616  139.2879  165.2483 C.3     1  UNL1        0.1155
     30 C         138.8596  138.2214  164.4576 C.3     1  UNL1        0.0315
     31 C         139.4519  138.5470  163.1185 C.3     1  UNL1        0.0252
     32 O         137.5693  138.9623  166.5874 O.3     1  UNL1       -0.3536
     33 C         137.4012  137.5314  167.0053 C.3     1  UNL1        0.1740
@<TRIPOS>BOND
     1    24    25    1
     2    25    23    1
     3    23    17    1
     4    17    18   ar
     5    18    19   ar
     6    19    20   ar
     7    20     1    1
     8     1     2   ar
     9     2     3   ar
    10     3     4   ar
    11     4     5   ar
    12     5     6   ar
    13     6     7    1
    14     4     8   ar
    15     8     9   ar
    16     9    10   ar
    17    10    11   ar
    18    11    12   ar
    19    26    12    1
    20    26    27    1
    21    27    28    1
    22    28    29    1
    23    29    32    1
    24    32    33    1
    25    29    30    1
    26    30    31    1
    27    12    13   ar
    28    13    14    2
    29    13    15   ar
    30    15    16    1
    31    20    21   ar
    32    21    22   ar
    33    22    17   ar
    34     6     1   ar
    35    15    10   ar
    36    11     3   ar
    37    31    26    1
@<TRIPOS>MOLECULE
*****
 33 37 0 0 0
SMALL
GASTEIGER

@<TRIPOS>ATOM
      1 C         142.7067  139.8127  163.0969 C.ar    1  UNL1        0.0291
      2 C         141.6248  139.9626  162.0688 C.ar    1  UNL1        0.0053
      3 C         141.7591  139.2893  160.7352 C.ar    1  UNL1        0.0352
      4 C         142.9752  138.4660  160.4297 C.ar    1  UNL1        0.0850
      5 C         144.0571  138.3161  161.4578 C.ar    1  UNL1        0.0488
      6 C         143.9228  138.9894  162.7914 C.ar    1  UNL1        0.1416
      7 F         145.0047  138.8396  163.8196 F       1  UNL1       -0.2041
      8 N         143.1095  137.7927  159.0960 N.ar    1  UNL1       -0.2422
      9 C         142.0276  137.9426  158.0679 C.ar    1  UNL1        0.1175
     10 C         140.8115  138.7658  158.3734 C.ar    1  UNL1        0.0989
     11 C         140.6772  139.4392  159.7070 C.ar    1  UNL1        0.0826
     12 N         139.3740  140.1816  159.7224 N.ar    1  UNL1       -0.2817
     13 C         138.7027  139.9671  158.3982 C.ar    1  UNL1        0.3316
     14 O         137.3759  140.5290  157.9810 O.2     1  UNL1       -0.2463
     15 N         139.5912  139.0921  157.5645 N.ar    1  UNL1       -0.2765
     16 C         139.3088  138.6253  156.1671 C.3     1  UNL1        0.1352
     17 C         142.3040  141.8326  167.0980 C.ar    1  UNL1        0.0888
     18 C         143.2876  142.3517  166.0914 C.ar    1  UNL1        0.0173
     19 C         143.4218  141.6783  164.7577 C.ar    1  UNL1        0.0029
     20 C         142.5725  140.4860  164.4306 C.ar    1  UNL1        0.0213
     21 C         141.5889  139.9670  165.4372 C.ar    1  UNL1        0.0986
     22 N         141.4546  140.6403  166.7708 N.ar    1  UNL1       -0.2457
     23 C         142.1697  142.5059  168.4316 C.3     1  UNL1        0.1876
     24 C         143.2268  143.2195  170.6951 C.3     1  UNL1        0.1747
     25 O         143.3815  142.7188  169.2896 O.3     1  UNL1       -0.3447
     26 C         138.8363  140.9956  160.8618 C.3     1  UNL1        0.0900
     27 C         138.0072  140.3401  161.9262 C.3     1  UNL1        0.0252
     28 C         137.4696  141.1541  163.0657 C.3     1  UNL1        0.0315
     29 C         137.7611  142.6237  163.1406 C.3     1  UNL1        0.1155
     30 C         138.5901  143.2791  162.0762 C.3     1  UNL1        0.0315
     31 C         139.1278  142.4651  160.9368 C.3     1  UNL1        0.0252
     32 O         137.2234  143.4377  164.2801 O.3     1  UNL1       -0.3536
     33 C         138.0966  144.4553  164.9525 C.3     1  UNL1        0.1740
@<TRIPOS>BOND
     1    24    25    1
     2    25    23    1
     3    23    17    1
     4    17    18   ar
     5    18    19   ar
     6    19    20   ar
     7    20     1    1
     8     1     2   ar
     9     2     3   ar
    10     3     4   ar
    11     4     5   ar
    12     5     6   ar
    13     6     7    1
    14     4     8   ar
    15     8     9   ar
    16     9    10   ar
    17    10    11   ar
    18    11    12   ar
    19    26    12    1
    20    26    27    1
    21    27    28    1
    22    28    29    1
    23    29    32    1
    24    32    33    1
    25    29    30    1
    26    30    31    1
    27    12    13   ar
    28    13    14    2
    29    13    15   ar
    30    15    16    1
    31    20    21   ar
    32    21    22   ar
    33    22    17   ar
    34     6     1   ar
    35    15    10   ar
    36    11     3   ar
    37    31    26    1
@<TRIPOS>MOLECULE
*****
 33 37 0 0 0
SMALL
GASTEIGER

@<TRIPOS>ATOM
      1 C         139.7683  139.8986  162.9609 C.ar    1  UNL1        0.0291
      2 C         140.0410  141.0479  162.0364 C.ar    1  UNL1        0.0053
      3 C         139.3342  141.1322  160.7161 C.ar    1  UNL1        0.0352
      4 C         138.3548  140.0674  160.3203 C.ar    1  UNL1        0.0850
      5 C         138.0821  138.9181  161.2448 C.ar    1  UNL1        0.0488
      6 C         138.7888  138.8337  162.5651 C.ar    1  UNL1        0.1416
      7 F         138.5161  137.6844  163.4897 F       1  UNL1       -0.2041
      8 N         137.6480  140.1518  158.9998 N.ar    1  UNL1       -0.2422
      9 C         137.9208  141.3011  158.0753 C.ar    1  UNL1        0.1175
     10 C         138.9002  142.3659  158.4712 C.ar    1  UNL1        0.0989
     11 C         139.6070  142.2816  159.7915 C.ar    1  UNL1        0.0826
     12 N         140.5129  143.4712  159.9093 N.ar    1  UNL1       -0.2817
     13 C         140.3661  144.2909  158.6616 C.ar    1  UNL1        0.3316
     14 O         141.0891  145.5693  158.3564 O.2     1  UNL1       -0.2463
     15 N         139.3694  143.6078  157.7728 N.ar    1  UNL1       -0.2765
     16 C         138.9206  144.0831  156.4227 C.3     1  UNL1        0.1352
     17 C         141.8885  139.6453  166.9222 C.ar    1  UNL1        0.0888
     18 C         142.4739  138.9763  165.7140 C.ar    1  UNL1        0.0173
     19 C         141.7672  139.0607  164.3936 C.ar    1  UNL1        0.0029
     20 C         140.4750  139.8142  164.2814 C.ar    1  UNL1        0.0213
     21 C         139.8895  140.4832  165.4895 C.ar    1  UNL1        0.0986
     22 N         140.5962  140.3988  166.8099 N.ar    1  UNL1       -0.2457
     23 C         142.5951  139.5609  168.2425 C.3     1  UNL1        0.1876
     24 C         141.8844  140.6166  170.5076 C.3     1  UNL1        0.1747
     25 O         141.8027  139.4954  169.5144 O.3     1  UNL1       -0.3447
     26 C         141.4085  143.7859  161.0707 C.3     1  UNL1        0.0900
     27 C         142.8143  143.2636  161.0969 C.3     1  UNL1        0.0252
     28 C         143.7098  143.5784  162.2583 C.3     1  UNL1        0.0315
     29 C         143.1995  144.4155  163.3936 C.3     1  UNL1        0.1155
     30 C         141.7936  144.9378  163.3674 C.3     1  UNL1        0.0315
     31 C         140.8981  144.6231  162.2059 C.3     1  UNL1        0.0252
     32 O         144.0950  144.7303  164.5550 O.3     1  UNL1       -0.3536
     33 C         144.5538  143.6317  165.4676 C.3     1  UNL1        0.1740
@<TRIPOS>BOND
     1    24    25    1
     2    25    23    1
     3    23    17    1
     4    17    18   ar
     5    18    19   ar
     6    19    20   ar
     7    20     1    1
     8     1     2   ar
     9     2     3   ar
    10     3     4   ar
    11     4     5   ar
    12     5     6   ar
    13     6     7    1
    14     4     8   ar
    15     8     9   ar
    16     9    10   ar
    17    10    11   ar
    18    11    12   ar
    19    26    12    1
    20    26    27    1
    21    27    28    1
    22    28    29    1
    23    29    32    1
    24    32    33    1
    25    29    30    1
    26    30    31    1
    27    12    13   ar
    28    13    14    2
    29    13    15   ar
    30    15    16    1
    31    20    21   ar
    32    21    22   ar
    33    22    17   ar
    34     6     1   ar
    35    15    10   ar
    36    11     3   ar
    37    31    26    1
