@<TRIPOS>MOLECULE
*****
 43 47 0 0 0
SMALL
GASTEIGER

@<TRIPOS>ATOM
      1 C         144.6282  140.8717  156.8739 C.3     1  UNL1        0.1534
      2 C         144.0957  141.2279  158.2302 C.3     1  UNL1        0.0469
      3 C         143.1835  140.1232  158.6748 C.3     1  UNL1        0.0798
      4 C         143.1522  139.0843  157.5933 C.3     1  UNL1        0.1101
      5 N         144.0450  139.5469  156.4803 N.am    1  UNL1       -0.2680
      6 C         144.3085  138.8134  155.1986 C.2     1  UNL1        0.2495
      7 O         145.2302  139.4033  154.1727 O.2     1  UNL1       -0.2699
      8 N         142.4342  140.0674  159.9731 N.3     1  UNL1       -0.2670
      9 C         142.6130  141.1557  160.9897 C.3     1  UNL1        0.0773
     10 C         141.8637  141.0998  162.2879 C.3     1  UNL1        0.0497
     11 C         140.9355  139.9555  162.5695 C.ar    1  UNL1        0.0473
     12 C         140.7567  138.8672  161.5529 C.ar    1  UNL1        0.0774
     13 N         139.8286  137.7229  161.8345 N.ar    1  UNL1       -0.2271
     14 C         139.0793  137.6670  163.1327 C.ar    1  UNL1        0.2012
     15 N         139.2581  138.7554  164.1494 N.ar    1  UNL1       -0.1896
     16 C         140.1862  139.8996  163.8678 C.ar    1  UNL1        0.2233
     17 C         141.5060  138.9231  160.2547 C.3     1  UNL1        0.1185
     18 O         140.3650  140.9880  164.8844 O.3     1  UNL1       -0.4600
     19 C         140.6849  140.6394  166.3079 C.3     1  UNL1        0.2118
     20 C         142.1135  140.5006  166.7432 C.3     1  UNL1        0.0737
     21 C         143.2222  140.7023  165.7532 C.ar    1  UNL1       -0.0184
     22 C         143.6961  142.0884  165.4300 C.ar    1  UNL1       -0.0041
     23 C         144.8047  142.2901  164.4400 C.ar    1  UNL1       -0.0003
     24 C         145.4395  141.1059  163.7732 C.ar    1  UNL1       -0.0000
     25 C         144.9657  139.7199  164.0963 C.ar    1  UNL1       -0.0003
     26 C         143.8570  139.5181  165.0864 C.ar    1  UNL1       -0.0041
     27 C         143.6502  137.4901  154.9429 C.ar    1  UNL1        0.0566
     28 C         142.4538  137.4093  154.0418 C.ar    1  UNL1        0.0044
     29 C         141.7955  136.0859  153.7860 C.ar    1  UNL1        0.0002
     30 C         142.3337  134.8434  154.4313 C.ar    1  UNL1        0.0274
     31 C         143.5302  134.9242  155.3324 C.ar    1  UNL1        0.1361
     32 C         144.1884  136.2475  155.5882 C.ar    1  UNL1        0.0411
     33 C         141.6754  133.5200  154.1755 C.3     1  UNL1        0.0952
     34 N         141.2144  132.6766  155.3271 N.3     1  UNL1       -0.3174
     35 H         142.0229  132.3640  155.8647 H       1  UNL1        0.1192
     36 H         140.7073  131.8655  154.9730 H       1  UNL1        0.1192
     37 O         144.0684  133.6817  155.9777 O.3     1  UNL1       -0.4717
     38 C         144.0230  133.5313  157.4694 C.3     1  UNL1        0.2525
     39 C         147.9760  142.1421  155.1627 C.3     1  UNL1        0.1107
     40 N         147.0270  141.3182  155.9816 N.am    1  UNL1       -0.3013
     41 C         145.5771  141.6956  156.0550 C.2     1  UNL1        0.2407
     42 O         145.0762  142.8969  155.3094 O.2     1  UNL1       -0.2733
     43 H         147.3558  140.5297  156.4709 H       1  UNL1        0.1495
@<TRIPOS>BOND
     1    39    40    1
     2    40    41   am
     3    41    42    2
     4     1    41    1
     5     1     2    1
     6     2     3    1
     7     3     8    1
     8     8     9    1
     9     9    10    1
    10    10    11    1
    11    11    12   ar
    12    12    13   ar
    13    13    14   ar
    14    14    15   ar
    15    15    16   ar
    16    16    18    1
    17    18    19    1
    18    19    20    1
    19    20    21    1
    20    21    22   ar
    21    22    23   ar
    22    23    24   ar
    23    24    25   ar
    24    25    26   ar
    25    12    17    1
    26     3     4    1
    27     4     5    1
    28     5     6   am
    29     6     7    2
    30     6    27    1
    31    27    28   ar
    32    28    29   ar
    33    29    30   ar
    34    30    33    1
    35    33    34    1
    36    30    31   ar
    37    31    37    1
    38    37    38    1
    39    31    32   ar
    40     5     1    1
    41    32    27   ar
    42    17     8    1
    43    16    11   ar
    44    26    21   ar
    45    40    43    1
    46    34    35    1
    47    34    36    1
@<TRIPOS>MOLECULE
*****
 43 47 0 0 0
SMALL
GASTEIGER

@<TRIPOS>ATOM
      1 C         143.9089  139.7952  157.3970 C.3     1  UNL1        0.1534
      2 C         143.6023  140.1128  158.8306 C.3     1  UNL1        0.0469
      3 C         142.8643  138.9457  159.4164 C.3     1  UNL1        0.0798
      4 C         142.7148  137.9067  158.3449 C.3     1  UNL1        0.1101
      5 N         143.3604  138.4317  157.0969 N.am    1  UNL1       -0.2680
      6 C         143.4431  137.7184  155.7799 C.2     1  UNL1        0.2495
      7 O         144.1235  138.3725  154.6141 O.2     1  UNL1       -0.2699
      8 N         142.3637  138.8367  160.8262 N.3     1  UNL1       -0.2670
      9 C         140.9455  138.4248  161.0888 C.3     1  UNL1        0.0773
     10 C         140.4449  138.3159  162.4985 C.3     1  UNL1        0.0497
     11 C         141.3625  138.6188  163.6458 C.ar    1  UNL1        0.0473
     12 C         142.7807  139.0307  163.3832 C.ar    1  UNL1        0.0774
     13 N         143.6984  139.3337  164.5305 N.ar    1  UNL1       -0.2271
     14 C         143.1978  139.2247  165.9403 C.ar    1  UNL1        0.2012
     15 N         141.7795  138.8128  166.2029 N.ar    1  UNL1       -0.1896
     16 C         140.8619  138.5098  165.0556 C.ar    1  UNL1        0.2233
     17 C         143.2813  139.1397  161.9735 C.3     1  UNL1        0.1185
     18 O         139.4437  138.0979  165.3182 O.3     1  UNL1       -0.4600
     19 C         138.4042  139.1370  165.6182 C.3     1  UNL1        0.2118
     20 C         138.0612  140.1736  164.5897 C.3     1  UNL1        0.0737
     21 C         138.4091  141.6126  164.8304 C.ar    1  UNL1       -0.0184
     22 C         139.5913  141.9660  165.6835 C.ar    1  UNL1       -0.0041
     23 C         139.9392  143.4050  165.9241 C.ar    1  UNL1       -0.0003
     24 C         139.1049  144.4909  165.3118 C.ar    1  UNL1       -0.0000
     25 C         137.9228  144.1376  164.4587 C.ar    1  UNL1       -0.0003
     26 C         137.5748  142.6985  164.2180 C.ar    1  UNL1       -0.0041
     27 C         142.8453  136.3510  155.6287 C.ar    1  UNL1        0.0566
     28 C         141.8615  136.0799  154.5293 C.ar    1  UNL1        0.0044
     29 C         141.2638  134.7126  154.3781 C.ar    1  UNL1        0.0002
     30 C         141.6497  133.6162  155.3264 C.ar    1  UNL1        0.0274
     31 C         142.6335  133.8873  156.4258 C.ar    1  UNL1        0.1361
     32 C         143.2313  135.2547  156.5770 C.ar    1  UNL1        0.0411
     33 C         141.0519  132.2488  155.1751 C.3     1  UNL1        0.0952
     34 N         141.9130  131.0315  155.3384 N.3     1  UNL1       -0.3174
     35 H         142.6031  131.0000  154.5880 H       1  UNL1        0.1192
     36 H         141.3304  130.1952  155.2999 H       1  UNL1        0.1192
     37 O         143.0194  132.7911  157.3740 O.3     1  UNL1       -0.4717
     38 C         144.4677  132.4932  157.6265 C.3     1  UNL1        0.2525
     39 C         146.7866  141.2756  155.0998 C.3     1  UNL1        0.1107
     40 N         146.0592  140.3860  156.0639 N.am    1  UNL1       -0.3013
     41 C         144.6363  140.6848  156.4330 C.2     1  UNL1        0.2407
     42 O         143.9409  141.8732  155.8380 O.2     1  UNL1       -0.2733
     43 H         146.5156  139.6060  156.4544 H       1  UNL1        0.1495
@<TRIPOS>BOND
     1    39    40    1
     2    40    41   am
     3    41    42    2
     4     1    41    1
     5     1     2    1
     6     2     3    1
     7     3     8    1
     8     8     9    1
     9     9    10    1
    10    10    11    1
    11    11    12   ar
    12    12    13   ar
    13    13    14   ar
    14    14    15   ar
    15    15    16   ar
    16    16    18    1
    17    18    19    1
    18    19    20    1
    19    20    21    1
    20    21    22   ar
    21    22    23   ar
    22    23    24   ar
    23    24    25   ar
    24    25    26   ar
    25    12    17    1
    26     3     4    1
    27     4     5    1
    28     5     6   am
    29     6     7    2
    30     6    27    1
    31    27    28   ar
    32    28    29   ar
    33    29    30   ar
    34    30    33    1
    35    33    34    1
    36    30    31   ar
    37    31    37    1
    38    37    38    1
    39    31    32   ar
    40     5     1    1
    41    32    27   ar
    42    17     8    1
    43    16    11   ar
    44    26    21   ar
    45    40    43    1
    46    34    35    1
    47    34    36    1
@<TRIPOS>MOLECULE
*****
 43 47 0 0 0
SMALL
GASTEIGER

@<TRIPOS>ATOM
      1 C         144.3647  140.8494  156.8234 C.3     1  UNL1        0.1534
      2 C         143.6922  141.2774  158.0940 C.3     1  UNL1        0.0469
      3 C         142.7297  140.1990  158.4950 C.3     1  UNL1        0.0798
      4 C         142.8074  139.1045  157.4723 C.3     1  UNL1        0.1101
      5 N         143.8179  139.5064  156.4392 N.am    1  UNL1       -0.2680
      6 C         144.2123  138.7060  155.2335 C.2     1  UNL1        0.2495
      7 O         145.2431  139.2396  154.2833 O.2     1  UNL1       -0.2699
      8 N         141.8448  140.2128  159.7063 N.3     1  UNL1       -0.2670
      9 C         141.4609  141.5171  160.3398 C.3     1  UNL1        0.0773
     10 C         140.5761  141.5308  161.5509 C.3     1  UNL1        0.0497
     11 C         140.0753  140.2403  162.1285 C.ar    1  UNL1        0.0473
     12 C         140.4592  138.9360  161.4950 C.ar    1  UNL1        0.0774
     13 N         139.9583  137.6454  162.0726 N.ar    1  UNL1       -0.2271
     14 C         139.0735  137.6592  163.2837 C.ar    1  UNL1        0.2012
     15 N         138.6895  138.9635  163.9173 N.ar    1  UNL1       -0.1896
     16 C         139.1904  140.2540  163.3397 C.ar    1  UNL1        0.2233
     17 C         141.3440  138.9223  160.2838 C.3     1  UNL1        0.1185
     18 O         138.8065  141.5583  163.9733 O.3     1  UNL1       -0.4600
     19 C         139.3116  141.9044  165.3427 C.3     1  UNL1        0.2118
     20 C         140.7870  141.9437  165.6101 C.3     1  UNL1        0.0737
     21 C         141.6423  142.9812  164.9452 C.ar    1  UNL1       -0.0184
     22 C         143.1180  142.7554  164.7990 C.ar    1  UNL1       -0.0041
     23 C         143.9733  143.7928  164.1341 C.ar    1  UNL1       -0.0003
     24 C         143.3529  145.0561  163.6153 C.ar    1  UNL1       -0.0000
     25 C         141.8772  145.2820  163.7614 C.ar    1  UNL1       -0.0003
     26 C         141.0219  144.2445  164.4264 C.ar    1  UNL1       -0.0041
     27 C         143.5761  137.3719  154.9780 C.ar    1  UNL1        0.0566
     28 C         142.4135  137.2635  154.0363 C.ar    1  UNL1        0.0044
     29 C         141.7772  135.9294  153.7808 C.ar    1  UNL1        0.0002
     30 C         142.3035  134.7037  154.4669 C.ar    1  UNL1        0.0274
     31 C         143.4661  134.8121  155.4085 C.ar    1  UNL1        0.1361
     32 C         144.1024  136.1462  155.6641 C.ar    1  UNL1        0.0411
     33 C         141.6672  133.3695  154.2114 C.3     1  UNL1        0.0952
     34 N         141.3306  132.4666  155.3609 N.3     1  UNL1       -0.3174
     35 H         142.1906  132.1610  155.8163 H       1  UNL1        0.1192
     36 H         140.8209  131.6531  155.0163 H       1  UNL1        0.1192
     37 O         143.9923  133.5864  156.0946 O.3     1  UNL1       -0.4717
     38 C         144.0384  133.5269  157.5927 C.3     1  UNL1        0.2525
     39 C         147.8697  141.9546  155.3256 C.3     1  UNL1        0.1107
     40 N         146.8325  141.1764  156.0796 N.am    1  UNL1       -0.3013
     41 C         145.4019  141.6276  156.0694 C.2     1  UNL1        0.2407
     42 O         145.0086  142.8569  155.3052 O.2     1  UNL1       -0.2733
     43 H         147.0906  140.3695  156.5811 H       1  UNL1        0.1495
@<TRIPOS>BOND
     1    39    40    1
     2    40    41   am
     3    41    42    2
     4     1    41    1
     5     1     2    1
     6     2     3    1
     7     3     8    1
     8     8     9    1
     9     9    10    1
    10    10    11    1
    11    11    12   ar
    12    12    13   ar
    13    13    14   ar
    14    14    15   ar
    15    15    16   ar
    16    16    18    1
    17    18    19    1
    18    19    20    1
    19    20    21    1
    20    21    22   ar
    21    22    23   ar
    22    23    24   ar
    23    24    25   ar
    24    25    26   ar
    25    12    17    1
    26     3     4    1
    27     4     5    1
    28     5     6   am
    29     6     7    2
    30     6    27    1
    31    27    28   ar
    32    28    29   ar
    33    29    30   ar
    34    30    33    1
    35    33    34    1
    36    30    31   ar
    37    31    37    1
    38    37    38    1
    39    31    32   ar
    40     5     1    1
    41    32    27   ar
    42    17     8    1
    43    16    11   ar
    44    26    21   ar
    45    40    43    1
    46    34    35    1
    47    34    36    1
@<TRIPOS>MOLECULE
*****
 43 47 0 0 0
SMALL
GASTEIGER

@<TRIPOS>ATOM
      1 C         144.0788  140.3548  157.3314 C.3     1  UNL1        0.1534
      2 C         143.7178  140.7216  158.7403 C.3     1  UNL1        0.0469
      3 C         142.9532  139.5768  159.3360 C.3     1  UNL1        0.0798
      4 C         142.8418  138.5024  158.2952 C.3     1  UNL1        0.1101
      5 N         143.5374  138.9832  157.0563 N.am    1  UNL1       -0.2680
      6 C         143.6686  138.2255  155.7684 C.2     1  UNL1        0.2495
      7 O         144.3963  138.8381  154.6086 O.2     1  UNL1       -0.2699
      8 N         142.3977  139.5169  160.7281 N.3     1  UNL1       -0.2670
      9 C         143.0253  140.3294  161.8217 C.3     1  UNL1        0.0773
     10 C         142.4697  140.2695  163.2137 C.3     1  UNL1        0.0497
     11 C         141.2866  139.3970  163.5121 C.ar    1  UNL1        0.0473
     12 C         140.6591  138.5845  162.4186 C.ar    1  UNL1        0.0774
     13 N         139.4759  137.7120  162.7170 N.ar    1  UNL1       -0.2271
     14 C         138.9204  137.6521  164.1090 C.ar    1  UNL1        0.2012
     15 N         139.5480  138.4647  165.2027 N.ar    1  UNL1       -0.1896
     16 C         140.7311  139.3371  164.9042 C.ar    1  UNL1        0.2233
     17 C         141.2146  138.6444  161.0265 C.3     1  UNL1        0.1185
     18 O         141.3587  140.1496  165.9978 O.3     1  UNL1       -0.4600
     19 C         140.5423  141.1659  166.7400 C.3     1  UNL1        0.2118
     20 C         140.5538  142.6009  166.3035 C.3     1  UNL1        0.0737
     21 C         139.6206  143.0642  165.2245 C.ar    1  UNL1       -0.0184
     22 C         138.5057  142.1728  164.7634 C.ar    1  UNL1       -0.0041
     23 C         137.5725  142.6361  163.6844 C.ar    1  UNL1       -0.0003
     24 C         137.7541  143.9907  163.0663 C.ar    1  UNL1       -0.0000
     25 C         138.8689  144.8821  163.5273 C.ar    1  UNL1       -0.0003
     26 C         139.8022  144.4188  164.6064 C.ar    1  UNL1       -0.0041
     27 C         143.0721  136.8552  155.6403 C.ar    1  UNL1        0.0566
     28 C         141.6278  136.6979  155.2672 C.ar    1  UNL1        0.0044
     29 C         141.0312  135.3276  155.1391 C.ar    1  UNL1        0.0002
     30 C         141.8790  134.1146  155.3841 C.ar    1  UNL1        0.0274
     31 C         143.3234  134.2720  155.7572 C.ar    1  UNL1        0.1361
     32 C         143.9199  135.6423  155.8853 C.ar    1  UNL1        0.0411
     33 C         141.2825  132.7443  155.2560 C.3     1  UNL1        0.0952
     34 N         142.0552  131.6500  154.5812 N.3     1  UNL1       -0.3174
     35 H         142.1747  131.8771  153.5940 H       1  UNL1        0.1192
     36 H         141.5460  130.7705  154.6685 H       1  UNL1        0.1192
     37 O         144.1711  133.0591  156.0021 O.3     1  UNL1       -0.4717
     38 C         144.4854  132.6348  157.4061 C.3     1  UNL1        0.2525
     39 C         147.0313  141.7159  155.0554 C.3     1  UNL1        0.1107
     40 N         146.2637  140.8613  156.0199 N.am    1  UNL1       -0.3013
     41 C         144.8465  141.2095  156.3669 C.2     1  UNL1        0.2407
     42 O         144.1970  142.4124  155.7495 O.2     1  UNL1       -0.2733
     43 H         146.6899  140.0718  156.4251 H       1  UNL1        0.1495
@<TRIPOS>BOND
     1    39    40    1
     2    40    41   am
     3    41    42    2
     4     1    41    1
     5     1     2    1
     6     2     3    1
     7     3     8    1
     8     8     9    1
     9     9    10    1
    10    10    11    1
    11    11    12   ar
    12    12    13   ar
    13    13    14   ar
    14    14    15   ar
    15    15    16   ar
    16    16    18    1
    17    18    19    1
    18    19    20    1
    19    20    21    1
    20    21    22   ar
    21    22    23   ar
    22    23    24   ar
    23    24    25   ar
    24    25    26   ar
    25    12    17    1
    26     3     4    1
    27     4     5    1
    28     5     6   am
    29     6     7    2
    30     6    27    1
    31    27    28   ar
    32    28    29   ar
    33    29    30   ar
    34    30    33    1
    35    33    34    1
    36    30    31   ar
    37    31    37    1
    38    37    38    1
    39    31    32   ar
    40     5     1    1
    41    32    27   ar
    42    17     8    1
    43    16    11   ar
    44    26    21   ar
    45    40    43    1
    46    34    35    1
    47    34    36    1
@<TRIPOS>MOLECULE
*****
 43 47 0 0 0
SMALL
GASTEIGER

@<TRIPOS>ATOM
      1 C         139.6472  145.7694  157.0087 C.3     1  UNL1        0.1534
      2 C         140.4219  145.5026  158.2652 C.3     1  UNL1        0.0469
      3 C         140.3250  144.0364  158.5670 C.3     1  UNL1        0.0798
      4 C         139.4904  143.3971  157.4971 C.3     1  UNL1        0.1101
      5 N         139.0715  144.4681  156.5341 N.am    1  UNL1       -0.2680
      6 C         138.2254  144.2722  155.3110 C.2     1  UNL1        0.2495
      7 O         137.8863  145.4439  154.4381 O.2     1  UNL1       -0.2699
      8 N         140.9525  143.3331  159.7340 N.3     1  UNL1       -0.2670
      9 C         140.0928  142.5870  160.7107 C.3     1  UNL1        0.0773
     10 C         140.7203  141.8837  161.8775 C.3     1  UNL1        0.0497
     11 C         142.2076  141.9266  162.0677 C.ar    1  UNL1        0.0473
     12 C         143.0673  142.6728  161.0909 C.ar    1  UNL1        0.0774
     13 N         144.5546  142.7157  161.2811 N.ar    1  UNL1       -0.2271
     14 C         145.1822  142.0125  162.4479 C.ar    1  UNL1        0.2012
     15 N         144.3224  141.2663  163.4247 N.ar    1  UNL1       -0.1896
     16 C         142.8351  141.2233  163.2346 C.ar    1  UNL1        0.2233
     17 C         142.4398  143.3761  159.9241 C.3     1  UNL1        0.1185
     18 O         141.9754  140.4772  164.2113 O.3     1  UNL1       -0.4600
     19 C         141.9628  140.8765  165.6572 C.3     1  UNL1        0.2118
     20 C         141.4157  142.2134  166.0612 C.3     1  UNL1        0.0737
     21 C         140.2414  142.7949  165.3313 C.ar    1  UNL1       -0.0184
     22 C         140.3276  144.1754  164.7510 C.ar    1  UNL1       -0.0041
     23 C         139.1533  144.7569  164.0211 C.ar    1  UNL1       -0.0003
     24 C         137.8927  143.9578  163.8714 C.ar    1  UNL1       -0.0000
     25 C         137.8064  142.5774  164.4517 C.ar    1  UNL1       -0.0003
     26 C         138.9807  141.9958  165.1817 C.ar    1  UNL1       -0.0041
     27 C         137.7185  142.9046  154.9609 C.ar    1  UNL1        0.0566
     28 C         138.2018  142.2216  153.7160 C.ar    1  UNL1        0.0044
     29 C         137.6948  140.8540  153.3658 C.ar    1  UNL1        0.0002
     30 C         136.7045  140.1694  154.2607 C.ar    1  UNL1        0.0274
     31 C         136.2212  140.8524  155.5056 C.ar    1  UNL1        0.1361
     32 C         136.7282  142.2200  155.8557 C.ar    1  UNL1        0.0411
     33 C         136.1976  138.8017  153.9105 C.3     1  UNL1        0.0952
     34 N         136.4387  137.6512  154.8422 N.3     1  UNL1       -0.3174
     35 H         137.4387  137.4556  154.8893 H       1  UNL1        0.1192
     36 H         135.9468  136.8264  154.4984 H       1  UNL1        0.1192
     37 O         135.2310  140.1678  156.4003 O.3     1  UNL1       -0.4717
     38 C         133.7605  140.3742  156.1881 C.3     1  UNL1        0.2525
     39 C         139.9235  148.6879  154.3337 C.3     1  UNL1        0.1107
     40 N         140.0927  147.3541  154.9987 N.am    1  UNL1       -0.3013
     41 C         139.4779  147.1032  156.3437 C.2     1  UNL1        0.2407
     42 O         138.6939  148.1861  157.0238 O.2     1  UNL1       -0.2733
     43 H         140.6074  146.6433  154.5524 H       1  UNL1        0.1495
@<TRIPOS>BOND
     1    39    40    1
     2    40    41   am
     3    41    42    2
     4     1    41    1
     5     1     2    1
     6     2     3    1
     7     3     8    1
     8     8     9    1
     9     9    10    1
    10    10    11    1
    11    11    12   ar
    12    12    13   ar
    13    13    14   ar
    14    14    15   ar
    15    15    16   ar
    16    16    18    1
    17    18    19    1
    18    19    20    1
    19    20    21    1
    20    21    22   ar
    21    22    23   ar
    22    23    24   ar
    23    24    25   ar
    24    25    26   ar
    25    12    17    1
    26     3     4    1
    27     4     5    1
    28     5     6   am
    29     6     7    2
    30     6    27    1
    31    27    28   ar
    32    28    29   ar
    33    29    30   ar
    34    30    33    1
    35    33    34    1
    36    30    31   ar
    37    31    37    1
    38    37    38    1
    39    31    32   ar
    40     5     1    1
    41    32    27   ar
    42    17     8    1
    43    16    11   ar
    44    26    21   ar
    45    40    43    1
    46    34    35    1
    47    34    36    1
@<TRIPOS>MOLECULE
*****
 43 47 0 0 0
SMALL
GASTEIGER

@<TRIPOS>ATOM
      1 C         140.6084  138.7489  156.7544 C.3     1  UNL1        0.1534
      2 C         141.0305  139.4357  158.0193 C.3     1  UNL1        0.0469
      3 C         142.0090  138.5452  158.7260 C.3     1  UNL1        0.0798
      4 C         142.1917  137.3079  157.8979 C.3     1  UNL1        0.1101
      5 N         141.3260  137.4338  156.6793 N.am    1  UNL1       -0.2680
      6 C         141.2001  136.4222  155.5789 C.2     1  UNL1        0.2495
      7 O         140.2897  136.6877  154.4167 O.2     1  UNL1       -0.2699
      8 N         142.6861  138.8401  160.0317 N.3     1  UNL1       -0.2670
      9 C         142.6189  137.8458  161.1528 C.3     1  UNL1        0.0773
     10 C         143.2960  138.1408  162.4583 C.3     1  UNL1        0.0497
     11 C         144.0401  139.4301  162.6428 C.ar    1  UNL1        0.0473
     12 C         144.1073  140.4243  161.5218 C.ar    1  UNL1        0.0774
     13 N         144.8515  141.7136  161.7063 N.ar    1  UNL1       -0.2271
     14 C         145.5285  142.0086  163.0118 C.ar    1  UNL1        0.2012
     15 N         145.4614  141.0143  164.1330 N.ar    1  UNL1       -0.1896
     16 C         144.7172  139.7250  163.9485 C.ar    1  UNL1        0.2233
     17 C         143.4303  140.1294  160.2162 C.3     1  UNL1        0.1185
     18 O         144.6500  138.7307  165.0696 O.3     1  UNL1       -0.4600
     19 C         143.4982  138.7600  166.0301 C.3     1  UNL1        0.2118
     20 C         142.3841  139.7453  165.8353 C.3     1  UNL1        0.0737
     21 C         140.9580  139.3021  165.9749 C.ar    1  UNL1       -0.0184
     22 C         140.1023  139.8626  167.0722 C.ar    1  UNL1       -0.0041
     23 C         138.6762  139.4194  167.2118 C.ar    1  UNL1       -0.0003
     24 C         138.1055  138.4157  166.2541 C.ar    1  UNL1       -0.0000
     25 C         138.9610  137.8553  165.1569 C.ar    1  UNL1       -0.0003
     26 C         140.3873  138.2985  165.0173 C.ar    1  UNL1       -0.0041
     27 C         141.9845  135.1452  155.6407 C.ar    1  UNL1        0.0566
     28 C         143.4599  135.1836  155.9089 C.ar    1  UNL1        0.0044
     29 C         144.2443  133.9066  155.9707 C.ar    1  UNL1        0.0002
     30 C         143.5534  132.5912  155.7643 C.ar    1  UNL1        0.0274
     31 C         142.0781  132.5529  155.4961 C.ar    1  UNL1        0.1361
     32 C         141.2937  133.8299  155.4343 C.ar    1  UNL1        0.0411
     33 C         144.3380  131.3141  155.8261 C.3     1  UNL1        0.0952
     34 N         143.8532  130.1764  156.6750 N.3     1  UNL1       -0.3174
     35 H         143.8889  130.4464  157.6580 H       1  UNL1        0.1192
     36 H         144.4485  129.3620  156.5243 H       1  UNL1        0.1192
     37 O         141.3873  131.2376  155.2897 O.3     1  UNL1       -0.4717
     38 C         141.0077  130.7987  153.9065 C.3     1  UNL1        0.2525
     39 C         137.3169  139.1862  154.5807 C.3     1  UNL1        0.1107
     40 N         138.2864  138.6519  155.5929 N.am    1  UNL1       -0.3013
     41 C         139.6388  139.2833  155.7423 C.2     1  UNL1        0.2407
     42 O         140.0217  140.4491  154.8796 O.2     1  UNL1       -0.2733
     43 H         138.0351  137.8867  156.1591 H       1  UNL1        0.1495
@<TRIPOS>BOND
     1    39    40    1
     2    40    41   am
     3    41    42    2
     4     1    41    1
     5     1     2    1
     6     2     3    1
     7     3     8    1
     8     8     9    1
     9     9    10    1
    10    10    11    1
    11    11    12   ar
    12    12    13   ar
    13    13    14   ar
    14    14    15   ar
    15    15    16   ar
    16    16    18    1
    17    18    19    1
    18    19    20    1
    19    20    21    1
    20    21    22   ar
    21    22    23   ar
    22    23    24   ar
    23    24    25   ar
    24    25    26   ar
    25    12    17    1
    26     3     4    1
    27     4     5    1
    28     5     6   am
    29     6     7    2
    30     6    27    1
    31    27    28   ar
    32    28    29   ar
    33    29    30   ar
    34    30    33    1
    35    33    34    1
    36    30    31   ar
    37    31    37    1
    38    37    38    1
    39    31    32   ar
    40     5     1    1
    41    32    27   ar
    42    17     8    1
    43    16    11   ar
    44    26    21   ar
    45    40    43    1
    46    34    35    1
    47    34    36    1
@<TRIPOS>MOLECULE
*****
 43 47 0 0 0
SMALL
GASTEIGER

@<TRIPOS>ATOM
      1 C         143.0560  139.2755  156.8433 C.3     1  UNL1        0.1534
      2 C         142.8393  139.6955  158.2669 C.3     1  UNL1        0.0469
      3 C         142.5474  138.4652  159.0739 C.3     1  UNL1        0.0798
      4 C         142.5837  137.2848  158.1490 C.3     1  UNL1        0.1101
      5 N         142.8980  137.7856  156.7704 N.am    1  UNL1       -0.2680
      6 C         143.0310  136.9442  155.5358 C.2     1  UNL1        0.2495
      7 O         143.3503  137.5889  154.2196 O.2     1  UNL1       -0.2699
      8 N         142.2683  138.4227  160.5471 N.3     1  UNL1       -0.2670
      9 C         140.8782  138.1484  161.0394 C.3     1  UNL1        0.0773
     10 C         140.5991  138.1060  162.5126 C.3     1  UNL1        0.0497
     11 C         141.7101  138.3379  163.4934 C.ar    1  UNL1        0.0473
     12 C         143.1002  138.6122  163.0011 C.ar    1  UNL1        0.0774
     13 N         144.2111  138.8440  163.9819 N.ar    1  UNL1       -0.2271
     14 C         143.9320  138.8016  165.4550 C.ar    1  UNL1        0.2012
     15 N         142.5419  138.5273  165.9475 N.ar    1  UNL1       -0.1896
     16 C         141.4309  138.2954  164.9667 C.ar    1  UNL1        0.2233
     17 C         143.3792  138.6546  161.5279 C.3     1  UNL1        0.1185
     18 O         140.0409  138.0211  165.4590 O.3     1  UNL1       -0.4600
     19 C         139.1811  139.1500  165.9454 C.3     1  UNL1        0.2118
     20 C         139.7648  140.5225  166.1048 C.3     1  UNL1        0.0737
     21 C         139.8980  141.1268  167.4711 C.ar    1  UNL1       -0.0184
     22 C         140.3994  142.5323  167.6240 C.ar    1  UNL1       -0.0041
     23 C         140.5327  143.1366  168.9904 C.ar    1  UNL1       -0.0003
     24 C         140.1645  142.3355  170.2039 C.ar    1  UNL1       -0.0000
     25 C         139.6631  140.9301  170.0511 C.ar    1  UNL1       -0.0003
     26 C         139.5298  140.3257  168.6847 C.ar    1  UNL1       -0.0041
     27 C         142.8448  135.4580  155.6173 C.ar    1  UNL1        0.0566
     28 C         141.5269  134.8458  155.2453 C.ar    1  UNL1        0.0044
     29 C         141.3407  133.3597  155.3268 C.ar    1  UNL1        0.0002
     30 C         142.4724  132.4858  155.7803 C.ar    1  UNL1        0.0274
     31 C         143.7902  133.0980  156.1523 C.ar    1  UNL1        0.1361
     32 C         143.9765  134.5841  156.0708 C.ar    1  UNL1        0.0411
     33 C         142.2861  130.9995  155.8618 C.3     1  UNL1        0.0952
     34 N         142.9043  130.2269  156.9891 N.3     1  UNL1       -0.3174
     35 H         143.9206  130.2676  156.9120 H       1  UNL1        0.1192
     36 H         142.5985  129.2549  156.9430 H       1  UNL1        0.1192
     37 O         144.9218  132.2241  156.6058 O.3     1  UNL1       -0.4717
     38 C         145.4683  132.3657  157.9955 C.3     1  UNL1        0.2525
     39 C         142.6592  141.3647  153.4925 C.3     1  UNL1        0.1107
     40 N         142.3406  140.4546  154.6415 N.am    1  UNL1       -0.3013
     41 C         143.3746  140.1856  155.6943 C.2     1  UNL1        0.2407
     42 O         144.7273  140.8267  155.5981 O.2     1  UNL1       -0.2733
     43 H         141.4528  140.0338  154.7046 H       1  UNL1        0.1495
@<TRIPOS>BOND
     1    39    40    1
     2    40    41   am
     3    41    42    2
     4     1    41    1
     5     1     2    1
     6     2     3    1
     7     3     8    1
     8     8     9    1
     9     9    10    1
    10    10    11    1
    11    11    12   ar
    12    12    13   ar
    13    13    14   ar
    14    14    15   ar
    15    15    16   ar
    16    16    18    1
    17    18    19    1
    18    19    20    1
    19    20    21    1
    20    21    22   ar
    21    22    23   ar
    22    23    24   ar
    23    24    25   ar
    24    25    26   ar
    25    12    17    1
    26     3     4    1
    27     4     5    1
    28     5     6   am
    29     6     7    2
    30     6    27    1
    31    27    28   ar
    32    28    29   ar
    33    29    30   ar
    34    30    33    1
    35    33    34    1
    36    30    31   ar
    37    31    37    1
    38    37    38    1
    39    31    32   ar
    40     5     1    1
    41    32    27   ar
    42    17     8    1
    43    16    11   ar
    44    26    21   ar
    45    40    43    1
    46    34    35    1
    47    34    36    1
@<TRIPOS>MOLECULE
*****
 43 47 0 0 0
SMALL
GASTEIGER

@<TRIPOS>ATOM
      1 C         144.8407  140.9157  156.7700 C.3     1  UNL1        0.1534
      2 C         144.3926  141.3228  158.1423 C.3     1  UNL1        0.0469
      3 C         143.4615  140.2660  158.6585 C.3     1  UNL1        0.0798
      4 C         143.3341  139.2058  157.6051 C.3     1  UNL1        0.1101
      5 N         144.1865  139.6072  156.4379 N.am    1  UNL1       -0.2680
      6 C         144.3552  138.8358  155.1626 C.2     1  UNL1        0.2495
      7 O         145.2458  139.3652  154.0780 O.2     1  UNL1       -0.2699
      8 N         142.7778  140.2691  159.9936 N.3     1  UNL1       -0.2670
      9 C         142.3537  141.5662  160.6161 C.3     1  UNL1        0.0773
     10 C         141.6700  141.5692  161.9512 C.3     1  UNL1        0.0497
     11 C         141.4104  140.2750  162.6638 C.ar    1  UNL1        0.0473
     12 C         141.8345  138.9779  162.0413 C.ar    1  UNL1        0.0774
     13 N         141.5749  137.6837  162.7539 N.ar    1  UNL1       -0.2271
     14 C         140.8912  137.6867  164.0890 C.ar    1  UNL1        0.2012
     15 N         140.4671  138.9839  164.7116 N.ar    1  UNL1       -0.1896
     16 C         140.7267  140.2780  163.9990 C.ar    1  UNL1        0.2233
     17 C         142.5182  138.9749  160.7062 C.3     1  UNL1        0.1185
     18 O         140.3026  141.5752  164.6215 O.3     1  UNL1       -0.4600
     19 C         141.2731  142.3608  165.4529 C.3     1  UNL1        0.2118
     20 C         142.5453  141.7217  165.9250 C.3     1  UNL1        0.0737
     21 C         142.6851  141.2978  167.3570 C.ar    1  UNL1       -0.0184
     22 C         143.1935  142.2693  168.3806 C.ar    1  UNL1       -0.0041
     23 C         143.3333  141.8454  169.8126 C.ar    1  UNL1       -0.0003
     24 C         142.9648  140.4500  170.2211 C.ar    1  UNL1       -0.0000
     25 C         142.4564  139.4784  169.1976 C.ar    1  UNL1       -0.0003
     26 C         142.3166  139.9023  167.7655 C.ar    1  UNL1       -0.0041
     27 C         143.6331  137.5349  154.9719 C.ar    1  UNL1        0.0566
     28 C         142.4037  137.4782  154.1144 C.ar    1  UNL1        0.0044
     29 C         141.6817  136.1773  153.9238 C.ar    1  UNL1        0.0002
     30 C         142.1891  134.9331  154.5906 C.ar    1  UNL1        0.0274
     31 C         143.4185  134.9898  155.4481 C.ar    1  UNL1        0.1361
     32 C         144.1405  136.2907  155.6388 C.ar    1  UNL1        0.0411
     33 C         141.4670  133.6322  154.3999 C.3     1  UNL1        0.0952
     34 N         141.0861  132.8042  155.5912 N.3     1  UNL1       -0.3174
     35 H         141.9298  132.4649  156.0533 H       1  UNL1        0.1192
     36 H         140.5223  132.0103  155.2873 H       1  UNL1        0.1192
     37 O         143.9259  133.7458  156.1149 O.3     1  UNL1       -0.4717
     38 C         143.9931  133.6711  157.6115 C.3     1  UNL1        0.2525
     39 C         148.1471  142.0183  154.8722 C.3     1  UNL1        0.1107
     40 N         147.2095  141.2517  155.7572 N.am    1  UNL1       -0.3013
     41 C         145.7783  141.6823  155.8850 C.2     1  UNL1        0.2407
     42 O         145.2847  142.8794  155.1279 O.2     1  UNL1       -0.2733
     43 H         147.5335  140.4660  156.2541 H       1  UNL1        0.1495
@<TRIPOS>BOND
     1    39    40    1
     2    40    41   am
     3    41    42    2
     4     1    41    1
     5     1     2    1
     6     2     3    1
     7     3     8    1
     8     8     9    1
     9     9    10    1
    10    10    11    1
    11    11    12   ar
    12    12    13   ar
    13    13    14   ar
    14    14    15   ar
    15    15    16   ar
    16    16    18    1
    17    18    19    1
    18    19    20    1
    19    20    21    1
    20    21    22   ar
    21    22    23   ar
    22    23    24   ar
    23    24    25   ar
    24    25    26   ar
    25    12    17    1
    26     3     4    1
    27     4     5    1
    28     5     6   am
    29     6     7    2
    30     6    27    1
    31    27    28   ar
    32    28    29   ar
    33    29    30   ar
    34    30    33    1
    35    33    34    1
    36    30    31   ar
    37    31    37    1
    38    37    38    1
    39    31    32   ar
    40     5     1    1
    41    32    27   ar
    42    17     8    1
    43    16    11   ar
    44    26    21   ar
    45    40    43    1
    46    34    35    1
    47    34    36    1
@<TRIPOS>MOLECULE
*****
 43 47 0 0 0
SMALL
GASTEIGER

@<TRIPOS>ATOM
      1 C         142.1180  136.3964  156.4364 C.3     1  UNL1        0.1534
      2 C         142.8950  136.5897  157.7048 C.3     1  UNL1        0.0469
      3 C         142.5034  137.9137  158.2911 C.3     1  UNL1        0.0798
      4 C         141.4844  138.5387  157.3850 C.3     1  UNL1        0.1101
      5 N         141.2462  137.6010  156.2387 N.am    1  UNL1       -0.2680
      6 C         140.3020  137.8279  155.0955 C.2     1  UNL1        0.2495
      7 O         140.1690  136.7948  154.0162 O.2     1  UNL1       -0.2699
      8 N         143.0371  138.5083  159.5606 N.3     1  UNL1       -0.2670
      9 C         143.2316  137.6431  160.7703 C.3     1  UNL1        0.0773
     10 C         143.7653  138.2377  162.0397 C.3     1  UNL1        0.0497
     11 C         144.1046  139.6976  162.0994 C.ar    1  UNL1        0.0473
     12 C         143.9101  140.5629  160.8897 C.ar    1  UNL1        0.0774
     13 N         144.2493  142.0228  160.9495 N.ar    1  UNL1       -0.2271
     14 C         144.7831  142.6174  162.2189 C.ar    1  UNL1        0.2012
     15 N         144.9776  141.7522  163.4287 N.ar    1  UNL1       -0.1896
     16 C         144.6383  140.2922  163.3690 C.ar    1  UNL1        0.2233
     17 C         143.3764  139.9683  159.6203 C.3     1  UNL1        0.1185
     18 O         144.8328  139.4270  164.5787 O.3     1  UNL1       -0.4600
     19 C         143.7086  139.2369  165.5535 C.3     1  UNL1        0.2118
     20 C         142.4765  140.0864  165.4523 C.3     1  UNL1        0.0737
     21 C         141.1203  139.4595  165.5849 C.ar    1  UNL1       -0.0184
     22 C         140.1591  139.9633  166.6205 C.ar    1  UNL1       -0.0041
     23 C         138.8030  139.3363  166.7532 C.ar    1  UNL1       -0.0003
     24 C         138.4079  138.2055  165.8503 C.ar    1  UNL1       -0.0000
     25 C         139.3690  137.7017  164.8147 C.ar    1  UNL1       -0.0003
     26 C         140.7253  138.3287  164.6820 C.ar    1  UNL1       -0.0041
     27 C         139.4907  139.0880  155.0316 C.ar    1  UNL1        0.0566
     28 C         139.9547  140.2366  154.1858 C.ar    1  UNL1        0.0044
     29 C         139.1435  141.4966  154.1218 C.ar    1  UNL1        0.0002
     30 C         137.8683  141.6081  154.9038 C.ar    1  UNL1        0.0274
     31 C         137.4043  140.4595  155.7496 C.ar    1  UNL1        0.1361
     32 C         138.2155  139.1994  155.8135 C.ar    1  UNL1        0.0411
     33 C         137.0570  142.8683  154.8398 C.3     1  UNL1        0.0952
     34 N         136.4752  143.4501  156.0940 N.3     1  UNL1       -0.3174
     35 H         135.7724  142.8136  156.4699 H       1  UNL1        0.1192
     36 H         136.0416  144.3488  155.8825 H       1  UNL1        0.1192
     37 O         136.1291  140.5710  156.5314 O.3     1  UNL1       -0.4717
     38 C         134.8243  140.1913  155.8963 C.3     1  UNL1        0.2525
     39 C         141.2112  132.9660  154.6587 C.3     1  UNL1        0.1107
     40 N         141.1305  134.1551  155.5695 N.am    1  UNL1       -0.3013
     41 C         142.1987  135.2073  155.5256 C.2     1  UNL1        0.2407
     42 O         143.3474  135.0705  154.5708 O.2     1  UNL1       -0.2733
     43 H         140.3766  134.2449  156.1962 H       1  UNL1        0.1495
@<TRIPOS>BOND
     1    39    40    1
     2    40    41   am
     3    41    42    2
     4     1    41    1
     5     1     2    1
     6     2     3    1
     7     3     8    1
     8     8     9    1
     9     9    10    1
    10    10    11    1
    11    11    12   ar
    12    12    13   ar
    13    13    14   ar
    14    14    15   ar
    15    15    16   ar
    16    16    18    1
    17    18    19    1
    18    19    20    1
    19    20    21    1
    20    21    22   ar
    21    22    23   ar
    22    23    24   ar
    23    24    25   ar
    24    25    26   ar
    25    12    17    1
    26     3     4    1
    27     4     5    1
    28     5     6   am
    29     6     7    2
    30     6    27    1
    31    27    28   ar
    32    28    29   ar
    33    29    30   ar
    34    30    33    1
    35    33    34    1
    36    30    31   ar
    37    31    37    1
    38    37    38    1
    39    31    32   ar
    40     5     1    1
    41    32    27   ar
    42    17     8    1
    43    16    11   ar
    44    26    21   ar
    45    40    43    1
    46    34    35    1
    47    34    36    1
