@<TRIPOS>MOLECULE
*****
 36 38 0 0 0
SMALL
GASTEIGER

@<TRIPOS>ATOM
      1 C         139.8921  144.3169  160.5154 C.ar    1  UNL1        0.1629
      2 C         140.3549  143.9927  159.1260 C.ar    1  UNL1        0.1398
      3 C         139.8787  142.7414  158.4496 C.ar    1  UNL1        0.0246
      4 C         138.9398  141.8142  159.1628 C.ar    1  UNL1        0.0386
      5 C         138.4769  142.1384  160.5523 C.ar    1  UNL1        0.1461
      6 C         138.9531  143.3897  161.2286 C.ar    1  UNL1        0.1226
      7 C         138.4903  143.7139  162.6181 C.2     1  UNL1        0.2550
      8 O         137.3259  144.6366  162.8246 O.2     1  UNL1       -0.2697
      9 N         139.1919  143.1153  163.8011 N.am    1  UNL1       -0.2750
     10 C         140.3524  142.1829  163.9860 C.3     1  UNL1        0.1014
     11 C         140.1841  142.2687  165.4740 C.3     1  UNL1        0.0821
     12 C         139.0237  143.2010  165.2892 C.3     1  UNL1        0.1014
     13 C         140.8857  141.6701  166.6570 C.ar    1  UNL1        0.0893
     14 N         140.1614  140.7069  167.5502 N.ar    1  UNL1       -0.2459
     15 C         140.8630  140.1083  168.7332 C.ar    1  UNL1        0.1024
     16 C         142.2889  140.4729  169.0229 C.ar    1  UNL1        0.0927
     17 C         143.0132  141.4360  168.1298 C.ar    1  UNL1        0.0363
     18 C         142.3115  142.0346  166.9468 C.ar    1  UNL1        0.1536
     19 F         143.0359  142.9978  166.0536 F       1  UNL1       -0.2029
     20 C         142.9905  139.8743  170.2059 C.3     1  UNL1        0.4201
     21 F         143.6921  139.2757  171.3889 F       1  UNL1       -0.1658
     22 F         143.8663  141.0884  170.3009 F       1  UNL1       -0.1658
     23 F         142.1148  138.6602  170.1109 F       1  UNL1       -0.1658
     24 S         141.2940  144.9199  158.4127 S.O2    1  UNL1        0.0133
     25 C         142.2329  145.8470  157.6995 C.3     1  UNL1        0.1817
     26 O         140.1270  145.5992  157.7596 O.2     1  UNL1       -0.1685
     27 O         142.4609  144.2406  159.0659 O.2     1  UNL1       -0.1685
     28 C         141.3654  145.4839  162.3091 C.3     1  UNL1        0.2525
     29 O         140.3683  145.5682  161.1917 O.3     1  UNL1       -0.4699
     30 O         137.5379  141.2112  161.2655 O.3     1  UNL1       -0.4701
     31 C         138.0534  139.9358  161.8635 C.3     1  UNL1        0.2600
     32 C         138.5548  138.8385  160.9722 C.3     1  UNL1        0.0566
     33 C         138.0674  139.7577  163.3528 C.3     1  UNL1        0.4340
     34 F         138.0815  139.5796  164.8421 F       1  UNL1       -0.1664
     35 F         139.0852  138.6649  163.2125 F       1  UNL1       -0.1664
     36 F         137.0496  140.8506  163.4932 F       1  UNL1       -0.1664
@<TRIPOS>BOND
     1    28    29    1
     2    29     1    1
     3     1     2   ar
     4     2    24    1
     5    24    25    1
     6    24    26    2
     7    24    27    2
     8     2     3   ar
     9     3     4   ar
    10     4     5   ar
    11     5    30    1
    12    30    31    1
    13    31    32    1
    14    31    33    1
    15    33    34    1
    16    33    35    1
    17    33    36    1
    18     5     6   ar
    19     6     7    1
    20     7     8    2
    21     7     9   am
    22     9    10    1
    23    10    11    1
    24    11    13    1
    25    13    14   ar
    26    14    15   ar
    27    15    16   ar
    28    16    20    1
    29    20    21    1
    30    20    22    1
    31    20    23    1
    32    16    17   ar
    33    17    18   ar
    34    18    19    1
    35    11    12    1
    36     6     1   ar
    37    12     9    1
    38    18    13   ar
@<TRIPOS>MOLECULE
*****
 36 38 0 0 0
SMALL
GASTEIGER

@<TRIPOS>ATOM
      1 C         140.5507  143.2304  159.7336 C.ar    1  UNL1        0.1629
      2 C         141.1411  142.5098  158.5580 C.ar    1  UNL1        0.1398
      3 C         142.6280  142.3442  158.4493 C.ar    1  UNL1        0.0246
      4 C         143.5244  142.8991  159.5162 C.ar    1  UNL1        0.0386
      5 C         142.9340  143.6198  160.6918 C.ar    1  UNL1        0.1461
      6 C         141.4472  143.7854  160.8005 C.ar    1  UNL1        0.1226
      7 C         140.8568  144.5061  161.9762 C.2     1  UNL1        0.2550
      8 O         140.4540  145.9453  161.8486 O.2     1  UNL1       -0.2697
      9 N         140.6692  143.7874  163.2794 N.am    1  UNL1       -0.2750
     10 C         140.9421  142.3974  163.7730 C.3     1  UNL1        0.1014
     11 C         140.4040  142.7711  165.1224 C.3     1  UNL1        0.0821
     12 C         140.1312  144.1610  164.6288 C.3     1  UNL1        0.1014
     13 C         140.2165  142.0525  166.4256 C.ar    1  UNL1        0.0893
     14 N         140.6993  142.6755  167.7019 N.ar    1  UNL1       -0.2459
     15 C         140.5118  141.9568  169.0051 C.ar    1  UNL1        0.1024
     16 C         139.8414  140.6152  169.0320 C.ar    1  UNL1        0.0927
     17 C         139.3586  139.9923  167.7558 C.ar    1  UNL1        0.0363
     18 C         139.5461  140.7109  166.4526 C.ar    1  UNL1        0.1536
     19 F         139.0632  140.0879  165.1763 F       1  UNL1       -0.2029
     20 C         139.6538  139.8965  170.3353 C.3     1  UNL1        0.4201
     21 F         139.4663  139.1779  171.6385 F       1  UNL1       -0.1658
     22 F         141.1188  139.5762  170.3695 F       1  UNL1       -0.1658
     23 F         138.1888  140.2168  170.3011 F       1  UNL1       -0.1658
     24 S         140.2447  141.9548  157.4910 S.O2    1  UNL1        0.0133
     25 C         139.3483  141.3998  156.4241 C.3     1  UNL1        0.1817
     26 O         140.1940  140.6428  158.2161 O.2     1  UNL1       -0.1685
     27 O         140.2953  143.2669  156.7658 O.2     1  UNL1       -0.1685
     28 C         138.2631  142.4477  160.6845 C.3     1  UNL1        0.2525
     29 O         139.0639  143.3961  159.8423 O.3     1  UNL1       -0.4699
     30 O         143.8305  144.1748  161.7588 O.3     1  UNL1       -0.4701
     31 C         144.4553  143.2557  162.7662 C.3     1  UNL1        0.2600
     32 C         145.1069  141.9817  162.3165 C.3     1  UNL1        0.0566
     33 C         144.4286  143.6108  164.2234 C.3     1  UNL1        0.4340
     34 F         144.4019  143.9658  165.6805 F       1  UNL1       -0.1664
     35 F         145.2576  142.3998  164.5336 F       1  UNL1       -0.1664
     36 F         143.5997  144.8218  163.9132 F       1  UNL1       -0.1664
@<TRIPOS>BOND
     1    28    29    1
     2    29     1    1
     3     1     2   ar
     4     2    24    1
     5    24    25    1
     6    24    26    2
     7    24    27    2
     8     2     3   ar
     9     3     4   ar
    10     4     5   ar
    11     5    30    1
    12    30    31    1
    13    31    32    1
    14    31    33    1
    15    33    34    1
    16    33    35    1
    17    33    36    1
    18     5     6   ar
    19     6     7    1
    20     7     8    2
    21     7     9   am
    22     9    10    1
    23    10    11    1
    24    11    13    1
    25    13    14   ar
    26    14    15   ar
    27    15    16   ar
    28    16    20    1
    29    20    21    1
    30    20    22    1
    31    20    23    1
    32    16    17   ar
    33    17    18   ar
    34    18    19    1
    35    11    12    1
    36     6     1   ar
    37    12     9    1
    38    18    13   ar
@<TRIPOS>MOLECULE
*****
 36 38 0 0 0
SMALL
GASTEIGER

@<TRIPOS>ATOM
      1 C         141.3773  140.9401  159.2095 C.ar    1  UNL1        0.1629
      2 C         142.5822  140.5860  158.3893 C.ar    1  UNL1        0.1398
      3 C         143.7602  141.5136  158.3478 C.ar    1  UNL1        0.0246
      4 C         143.7333  142.7954  159.1264 C.ar    1  UNL1        0.0386
      5 C         142.5284  143.1495  159.9466 C.ar    1  UNL1        0.1461
      6 C         141.3504  142.2219  159.9881 C.ar    1  UNL1        0.1226
      7 C         140.1454  142.5760  160.8083 C.2     1  UNL1        0.2550
      8 O         139.0149  143.3423  160.1882 O.2     1  UNL1       -0.2697
      9 N         140.0711  142.1639  162.2487 N.am    1  UNL1       -0.2750
     10 C         140.9721  141.4151  163.1855 C.3     1  UNL1        0.1014
     11 C         139.9660  141.5811  164.2856 C.3     1  UNL1        0.0821
     12 C         139.0652  142.3299  163.3489 C.3     1  UNL1        0.1014
     13 C         139.8917  141.1690  165.7260 C.ar    1  UNL1        0.0893
     14 N         140.6900  141.9071  166.7594 N.ar    1  UNL1       -0.2459
     15 C         140.6157  141.4950  168.1998 C.ar    1  UNL1        0.1024
     16 C         139.7431  140.3447  168.6067 C.ar    1  UNL1        0.0927
     17 C         138.9448  139.6067  167.5733 C.ar    1  UNL1        0.0363
     18 C         139.0191  140.0188  166.1329 C.ar    1  UNL1        0.1536
     19 F         138.2208  139.2807  165.0995 F       1  UNL1       -0.2029
     20 C         139.6688  139.9326  170.0471 C.3     1  UNL1        0.4201
     21 F         139.5944  139.5205  171.4874 F       1  UNL1       -0.1658
     22 F         138.2744  140.4792  170.1315 F       1  UNL1       -0.1658
     23 F         141.0631  139.3861  169.9626 F       1  UNL1       -0.1658
     24 S         142.6091  139.3042  157.6106 S.O2    1  UNL1        0.0133
     25 C         142.6360  138.0224  156.8319 C.3     1  UNL1        0.1817
     26 O         141.8776  139.9728  156.4847 O.2     1  UNL1       -0.1685
     27 O         143.3407  138.6355  158.7365 O.2     1  UNL1       -0.1685
     28 C         140.1184  138.9496  160.3063 C.3     1  UNL1        0.2525
     29 O         140.1992  140.0125  159.2510 O.3     1  UNL1       -0.4699
     30 O         142.5015  144.4313  160.7252 O.3     1  UNL1       -0.4701
     31 C         142.9216  144.4431  162.1652 C.3     1  UNL1        0.2600
     32 C         144.3107  144.0230  162.5446 C.3     1  UNL1        0.0566
     33 C         141.9526  144.8749  163.2257 C.3     1  UNL1        0.4340
     34 F         140.9836  145.3067  164.2861 F       1  UNL1       -0.1664
     35 F         142.8385  144.2776  164.2784 F       1  UNL1       -0.1664
     36 F         141.0666  145.4722  162.1730 F       1  UNL1       -0.1664
@<TRIPOS>BOND
     1    28    29    1
     2    29     1    1
     3     1     2   ar
     4     2    24    1
     5    24    25    1
     6    24    26    2
     7    24    27    2
     8     2     3   ar
     9     3     4   ar
    10     4     5   ar
    11     5    30    1
    12    30    31    1
    13    31    32    1
    14    31    33    1
    15    33    34    1
    16    33    35    1
    17    33    36    1
    18     5     6   ar
    19     6     7    1
    20     7     8    2
    21     7     9   am
    22     9    10    1
    23    10    11    1
    24    11    13    1
    25    13    14   ar
    26    14    15   ar
    27    15    16   ar
    28    16    20    1
    29    20    21    1
    30    20    22    1
    31    20    23    1
    32    16    17   ar
    33    17    18   ar
    34    18    19    1
    35    11    12    1
    36     6     1   ar
    37    12     9    1
    38    18    13   ar
@<TRIPOS>MOLECULE
*****
 36 38 0 0 0
SMALL
GASTEIGER

@<TRIPOS>ATOM
      1 C         142.0849  142.9322  159.7513 C.ar    1  UNL1        0.1629
      2 C         142.0869  141.9623  158.6071 C.ar    1  UNL1        0.1398
      3 C         140.8052  141.3194  158.1666 C.ar    1  UNL1        0.0246
      4 C         139.5216  141.6465  158.8702 C.ar    1  UNL1        0.0386
      5 C         139.5195  142.6164  160.0144 C.ar    1  UNL1        0.1461
      6 C         140.8012  143.2593  160.4549 C.ar    1  UNL1        0.1226
      7 C         140.7991  144.2293  161.5991 C.2     1  UNL1        0.2550
      8 O         140.5918  145.6924  161.3417 O.2     1  UNL1       -0.2697
      9 N         141.0045  143.7361  163.0008 N.am    1  UNL1       -0.2750
     10 C         141.2352  142.3940  163.6299 C.3     1  UNL1        0.1014
     11 C         141.2948  143.0386  164.9830 C.3     1  UNL1        0.0821
     12 C         141.0642  144.3806  164.3539 C.3     1  UNL1        0.1014
     13 C         141.5002  142.5454  166.3846 C.ar    1  UNL1        0.0893
     14 N         140.3216  142.1251  167.2120 N.ar    1  UNL1       -0.2459
     15 C         140.5270  141.6319  168.6136 C.ar    1  UNL1        0.1024
     16 C         141.9108  141.5591  169.1879 C.ar    1  UNL1        0.0927
     17 C         143.0893  141.9794  168.3606 C.ar    1  UNL1        0.0363
     18 C         142.8839  142.4726  166.9589 C.ar    1  UNL1        0.1536
     19 F         144.0625  142.8929  166.1316 F       1  UNL1       -0.2029
     20 C         142.1162  141.0659  170.5896 C.3     1  UNL1        0.4201
     21 F         142.3215  140.5727  171.9912 F       1  UNL1       -0.1658
     22 F         140.6999  141.4288  170.9248 F       1  UNL1       -0.1658
     23 F         143.5325  140.7029  170.2544 F       1  UNL1       -0.1658
     24 S         143.3706  141.6352  157.9034 S.O2    1  UNL1        0.0133
     25 C         144.6543  141.3081  157.1997 C.3     1  UNL1        0.1817
     26 O         143.1581  142.7952  156.9765 O.2     1  UNL1       -0.1685
     27 O         143.5832  140.4751  158.8303 O.2     1  UNL1       -0.1685
     28 C         144.1832  142.9490  161.2831 C.3     1  UNL1        0.2525
     29 O         143.3665  143.5751  160.1918 O.3     1  UNL1       -0.4699
     30 O         138.2358  142.9435  160.7181 O.3     1  UNL1       -0.4701
     31 C         137.8337  142.1737  161.9411 C.3     1  UNL1        0.2600
     32 C         137.6125  140.6926  161.8559 C.3     1  UNL1        0.0566
     33 C         137.6528  142.8851  163.2493 C.3     1  UNL1        0.4340
     34 F         137.4720  143.5965  164.5574 F       1  UNL1       -0.1664
     35 F         137.6269  144.2011  162.5300 F       1  UNL1       -0.1664
     36 F         137.6787  141.5691  163.9686 F       1  UNL1       -0.1664
@<TRIPOS>BOND
     1    28    29    1
     2    29     1    1
     3     1     2   ar
     4     2    24    1
     5    24    25    1
     6    24    26    2
     7    24    27    2
     8     2     3   ar
     9     3     4   ar
    10     4     5   ar
    11     5    30    1
    12    30    31    1
    13    31    32    1
    14    31    33    1
    15    33    34    1
    16    33    35    1
    17    33    36    1
    18     5     6   ar
    19     6     7    1
    20     7     8    2
    21     7     9   am
    22     9    10    1
    23    10    11    1
    24    11    13    1
    25    13    14   ar
    26    14    15   ar
    27    15    16   ar
    28    16    20    1
    29    20    21    1
    30    20    22    1
    31    20    23    1
    32    16    17   ar
    33    17    18   ar
    34    18    19    1
    35    11    12    1
    36     6     1   ar
    37    12     9    1
    38    18    13   ar
@<TRIPOS>MOLECULE
*****
 36 38 0 0 0
SMALL
GASTEIGER

@<TRIPOS>ATOM
      1 C         143.5665  140.1535  159.9968 C.ar    1  UNL1        0.1629
      2 C         142.6903  139.9706  158.7932 C.ar    1  UNL1        0.1398
      3 C         141.9110  141.1313  158.2495 C.ar    1  UNL1        0.0246
      4 C         142.0080  142.4748  158.9094 C.ar    1  UNL1        0.0386
      5 C         142.8843  142.6576  160.1130 C.ar    1  UNL1        0.1461
      6 C         143.6635  141.4970  160.6567 C.ar    1  UNL1        0.1226
      7 C         144.5398  141.6799  161.8603 C.2     1  UNL1        0.2550
      8 O         145.9829  142.0508  161.6880 O.2     1  UNL1       -0.2697
      9 N         143.9729  141.4918  163.2363 N.am    1  UNL1       -0.2750
     10 C         142.6251  141.1327  163.7882 C.3     1  UNL1        0.1014
     11 C         143.1712  141.2258  165.1821 C.3     1  UNL1        0.0821
     12 C         144.5189  141.5849  164.6303 C.3     1  UNL1        0.1014
     13 C         142.6043  141.0378  166.5581 C.ar    1  UNL1        0.0893
     14 N         141.8834  142.1669  167.2330 N.ar    1  UNL1       -0.2459
     15 C         141.3165  141.9788  168.6090 C.ar    1  UNL1        0.1024
     16 C         141.4704  140.6616  169.3100 C.ar    1  UNL1        0.0927
     17 C         142.1913  139.5326  168.6350 C.ar    1  UNL1        0.0363
     18 C         142.7582  139.7206  167.2591 C.ar    1  UNL1        0.1536
     19 F         143.4790  138.5915  166.5841 F       1  UNL1       -0.2029
     20 C         140.9035  140.4736  170.6859 C.3     1  UNL1        0.4201
     21 F         140.3366  140.2855  172.0619 F       1  UNL1       -0.1658
     22 F         142.2504  140.7613  171.2802 F       1  UNL1       -0.1658
     23 F         139.5567  140.1858  170.0917 F       1  UNL1       -0.1658
     24 S         142.5932  138.6270  158.1332 S.O2    1  UNL1        0.0133
     25 C         142.4962  137.2835  157.4733 C.3     1  UNL1        0.1817
     26 O         141.4034  138.2951  158.9841 O.2     1  UNL1       -0.1685
     27 O         143.7831  138.9590  157.2823 O.2     1  UNL1       -0.1685
     28 C         143.7640  138.1442  161.6319 C.3     1  UNL1        0.2525
     29 O         144.3458  138.9928  160.5405 O.3     1  UNL1       -0.4699
     30 O         142.9813  144.0012  160.7729 O.3     1  UNL1       -0.4701
     31 C         142.1827  144.2887  162.0097 C.3     1  UNL1        0.2600
     32 C         140.7139  143.9858  162.0413 C.3     1  UNL1        0.0566
     33 C         142.8528  144.8792  163.2148 C.3     1  UNL1        0.4340
     34 F         143.5229  145.4696  164.4199 F       1  UNL1       -0.1664
     35 F         141.5236  144.9860  163.9016 F       1  UNL1       -0.1664
     36 F         144.1820  144.7724  162.5280 F       1  UNL1       -0.1664
@<TRIPOS>BOND
     1    28    29    1
     2    29     1    1
     3     1     2   ar
     4     2    24    1
     5    24    25    1
     6    24    26    2
     7    24    27    2
     8     2     3   ar
     9     3     4   ar
    10     4     5   ar
    11     5    30    1
    12    30    31    1
    13    31    32    1
    14    31    33    1
    15    33    34    1
    16    33    35    1
    17    33    36    1
    18     5     6   ar
    19     6     7    1
    20     7     8    2
    21     7     9   am
    22     9    10    1
    23    10    11    1
    24    11    13    1
    25    13    14   ar
    26    14    15   ar
    27    15    16   ar
    28    16    20    1
    29    20    21    1
    30    20    22    1
    31    20    23    1
    32    16    17   ar
    33    17    18   ar
    34    18    19    1
    35    11    12    1
    36     6     1   ar
    37    12     9    1
    38    18    13   ar
@<TRIPOS>MOLECULE
*****
 36 38 0 0 0
SMALL
GASTEIGER

@<TRIPOS>ATOM
      1 C         139.4966  141.4636  165.1545 C.ar    1  UNL1        0.1629
      2 C         139.9723  140.1809  165.7695 C.ar    1  UNL1        0.1398
      3 C         141.4131  140.0236  166.1561 C.ar    1  UNL1        0.0246
      4 C         142.3781  141.1490  165.9278 C.ar    1  UNL1        0.0386
      5 C         141.9023  142.4317  165.3128 C.ar    1  UNL1        0.1461
      6 C         140.4616  142.5890  164.9262 C.ar    1  UNL1        0.1226
      7 C         139.9859  143.8719  164.3113 C.2     1  UNL1        0.2550
      8 O         139.2840  144.8935  165.1560 O.2     1  UNL1       -0.2697
      9 N         140.2120  144.1330  162.8516 N.am    1  UNL1       -0.2750
     10 C         140.8527  143.3767  161.7256 C.3     1  UNL1        0.1014
     11 C         140.5318  144.5022  160.7873 C.3     1  UNL1        0.0821
     12 C         139.8912  145.2583  161.9132 C.3     1  UNL1        0.1014
     13 C         140.7579  144.7632  159.3276 C.ar    1  UNL1        0.0893
     14 N         141.8925  145.6414  158.8897 N.ar    1  UNL1       -0.2459
     15 C         142.1187  145.9024  157.4300 C.ar    1  UNL1        0.1024
     16 C         141.2102  145.2854  156.4082 C.ar    1  UNL1        0.0927
     17 C         140.0757  144.4073  156.8461 C.ar    1  UNL1        0.0363
     18 C         139.8496  144.1462  158.3058 C.ar    1  UNL1        0.1536
     19 F         138.7150  143.2681  158.7437 F       1  UNL1       -0.2029
     20 C         141.4364  145.5465  154.9485 C.3     1  UNL1        0.4201
     21 F         141.6625  145.8075  153.4888 F       1  UNL1       -0.1658
     22 F         142.8911  145.2212  155.1157 F       1  UNL1       -0.1658
     23 F         139.9816  145.8717  154.7813 F       1  UNL1       -0.1658
     24 S         139.0073  139.0554  165.9978 S.O2    1  UNL1        0.0133
     25 C         138.0423  137.9300  166.2262 C.3     1  UNL1        0.1817
     26 O         138.7520  139.5565  167.3884 O.2     1  UNL1       -0.1685
     27 O         139.2626  138.5543  164.6073 O.2     1  UNL1       -0.1685
     28 C         137.6301  141.3860  163.3490 C.3     1  UNL1        0.2525
     29 O         138.0558  141.6210  164.7679 O.3     1  UNL1       -0.4699
     30 O         142.8674  143.5572  165.0845 O.3     1  UNL1       -0.4701
     31 C         143.7777  143.5344  163.8925 C.3     1  UNL1        0.2600
     32 C         143.8457  144.7213  162.9779 C.3     1  UNL1        0.0566
     33 C         144.6201  142.3246  163.6152 C.3     1  UNL1        0.4340
     34 F         145.4625  141.1149  163.3380 F       1  UNL1       -0.1664
     35 F         145.4955  142.6662  164.7844 F       1  UNL1       -0.1664
     36 F         143.7447  141.9830  162.4461 F       1  UNL1       -0.1664
@<TRIPOS>BOND
     1    28    29    1
     2    29     1    1
     3     1     2   ar
     4     2    24    1
     5    24    25    1
     6    24    26    2
     7    24    27    2
     8     2     3   ar
     9     3     4   ar
    10     4     5   ar
    11     5    30    1
    12    30    31    1
    13    31    32    1
    14    31    33    1
    15    33    34    1
    16    33    35    1
    17    33    36    1
    18     5     6   ar
    19     6     7    1
    20     7     8    2
    21     7     9   am
    22     9    10    1
    23    10    11    1
    24    11    13    1
    25    13    14   ar
    26    14    15   ar
    27    15    16   ar
    28    16    20    1
    29    20    21    1
    30    20    22    1
    31    20    23    1
    32    16    17   ar
    33    17    18   ar
    34    18    19    1
    35    11    12    1
    36     6     1   ar
    37    12     9    1
    38    18    13   ar
@<TRIPOS>MOLECULE
*****
 36 38 0 0 0
SMALL
GASTEIGER

@<TRIPOS>ATOM
      1 C         141.6292  142.1646  159.1939 C.ar    1  UNL1        0.1629
      2 C         142.3831  143.1185  158.3154 C.ar    1  UNL1        0.1398
      3 C         142.0499  144.5808  158.3367 C.ar    1  UNL1        0.0246
      4 C         140.9628  145.0893  159.2364 C.ar    1  UNL1        0.0386
      5 C         140.2089  144.1355  160.1149 C.ar    1  UNL1        0.1461
      6 C         140.5421  142.6731  160.0936 C.ar    1  UNL1        0.1226
      7 C         139.7882  141.7192  160.9722 C.2     1  UNL1        0.2550
      8 O         138.5626  141.0288  160.4513 O.2     1  UNL1       -0.2697
      9 N         140.2598  141.4558  162.3715 N.am    1  UNL1       -0.2750
     10 C         141.4015  141.9408  163.2150 C.3     1  UNL1        0.1014
     11 C         140.9269  141.0833  164.3504 C.3     1  UNL1        0.0821
     12 C         139.7853  140.5983  163.5070 C.3     1  UNL1        0.1014
     13 C         141.3986  140.8199  165.7498 C.ar    1  UNL1        0.0893
     14 N         142.3403  139.6846  166.0226 N.ar    1  UNL1       -0.2459
     15 C         142.8120  139.4212  167.4219 C.ar    1  UNL1        0.1024
     16 C         142.3419  140.2931  168.5484 C.ar    1  UNL1        0.0927
     17 C         141.4002  141.4283  168.2756 C.ar    1  UNL1        0.0363
     18 C         140.9285  141.6917  166.8763 C.ar    1  UNL1        0.1536
     19 F         139.9868  142.8269  166.6034 F       1  UNL1       -0.2029
     20 C         142.8136  140.0297  169.9478 C.3     1  UNL1        0.4201
     21 F         143.2853  139.7662  171.3471 F       1  UNL1       -0.1658
     22 F         141.8731  138.8652  170.0456 F       1  UNL1       -0.1658
     23 F         143.7541  141.1941  169.8500 F       1  UNL1       -0.1658
     24 S         143.4703  142.6100  157.4156 S.O2    1  UNL1        0.0133
     25 C         144.5574  142.1015  156.5159 C.3     1  UNL1        0.1817
     26 O         144.4792  142.8492  158.4995 O.2     1  UNL1       -0.1685
     27 O         142.4614  142.3707  156.3317 O.2     1  UNL1       -0.1685
     28 C         142.9262  140.1380  160.1740 C.3     1  UNL1        0.2525
     29 O         141.9624  140.7022  159.1726 O.3     1  UNL1       -0.4699
     30 O         139.1217  144.6440  161.0147 O.3     1  UNL1       -0.4701
     31 C         139.4200  144.9497  162.4526 C.3     1  UNL1        0.2600
     32 C         140.6773  145.6811  162.8187 C.3     1  UNL1        0.0566
     33 C         138.4608  144.5239  163.5245 C.3     1  UNL1        0.4340
     34 F         137.5017  144.0983  164.5963 F       1  UNL1       -0.1664
     35 F         139.2791  145.2551  164.5471 F       1  UNL1       -0.1664
     36 F         137.6425  143.7928  162.5019 F       1  UNL1       -0.1664
@<TRIPOS>BOND
     1    28    29    1
     2    29     1    1
     3     1     2   ar
     4     2    24    1
     5    24    25    1
     6    24    26    2
     7    24    27    2
     8     2     3   ar
     9     3     4   ar
    10     4     5   ar
    11     5    30    1
    12    30    31    1
    13    31    32    1
    14    31    33    1
    15    33    34    1
    16    33    35    1
    17    33    36    1
    18     5     6   ar
    19     6     7    1
    20     7     8    2
    21     7     9   am
    22     9    10    1
    23    10    11    1
    24    11    13    1
    25    13    14   ar
    26    14    15   ar
    27    15    16   ar
    28    16    20    1
    29    20    21    1
    30    20    22    1
    31    20    23    1
    32    16    17   ar
    33    17    18   ar
    34    18    19    1
    35    11    12    1
    36     6     1   ar
    37    12     9    1
    38    18    13   ar
@<TRIPOS>MOLECULE
*****
 36 38 0 0 0
SMALL
GASTEIGER

@<TRIPOS>ATOM
      1 C         140.1185  142.4439  159.7466 C.ar    1  UNL1        0.1629
      2 C         141.2221  142.6246  158.7469 C.ar    1  UNL1        0.1398
      3 C         142.0025  141.4365  158.2683 C.ar    1  UNL1        0.0246
      4 C         141.6793  140.0675  158.7893 C.ar    1  UNL1        0.0386
      5 C         140.5758  139.8867  159.7890 C.ar    1  UNL1        0.1461
      6 C         139.7954  141.0749  160.2676 C.ar    1  UNL1        0.1226
      7 C         138.6917  140.8941  161.2674 C.2     1  UNL1        0.2550
      8 O         137.3016  140.5781  160.8009 O.2     1  UNL1       -0.2697
      9 N         138.9783  141.0293  162.7335 N.am    1  UNL1       -0.2750
     10 C         140.1991  141.3277  163.5525 C.3     1  UNL1        0.1014
     11 C         139.3837  141.2205  164.8069 C.3     1  UNL1        0.0821
     12 C         138.1630  140.9221  163.9880 C.3     1  UNL1        0.1014
     13 C         139.6703  141.3557  166.2731 C.ar    1  UNL1        0.0893
     14 N         140.2023  142.6484  166.8172 N.ar    1  UNL1       -0.2459
     15 C         140.4889  142.7836  168.2833 C.ar    1  UNL1        0.1024
     16 C         140.2435  141.6261  169.2054 C.ar    1  UNL1        0.0927
     17 C         139.7115  140.3335  168.6612 C.ar    1  UNL1        0.0363
     18 C         139.4249  140.1983  167.1951 C.ar    1  UNL1        0.1536
     19 F         138.8928  138.9056  166.6510 F       1  UNL1       -0.2029
     20 C         140.5301  141.7613  170.6715 C.3     1  UNL1        0.4201
     21 F         140.8167  141.8965  172.1376 F       1  UNL1       -0.1658
     22 F         141.5437  140.6598  170.5749 F       1  UNL1       -0.1658
     23 F         139.5165  142.8628  170.7681 F       1  UNL1       -0.1658
     24 S         141.5453  143.9937  158.2259 S.O2    1  UNL1        0.0133
     25 C         141.8685  145.3626  157.7049 C.3     1  UNL1        0.1817
     26 O         142.5702  144.1634  159.3078 O.2     1  UNL1       -0.1685
     27 O         140.5204  143.8239  157.1439 O.2     1  UNL1       -0.1685
     28 C         139.7702  144.3651  161.4605 C.3     1  UNL1        0.2525
     29 O         139.3381  143.6321  160.2253 O.3     1  UNL1       -0.4699
     30 O         140.2526  138.5177  160.3100 O.3     1  UNL1       -0.4701
     31 C         140.8554  138.0444  161.5995 C.3     1  UNL1        0.2600
     32 C         142.3451  137.9332  161.7347 C.3     1  UNL1        0.0566
     33 C         139.9683  137.6824  162.7537 C.3     1  UNL1        0.4340
     34 F         139.0814  137.3203  163.9079 F       1  UNL1       -0.1664
     35 F         141.1618  137.6539  163.6619 F       1  UNL1       -0.1664
     36 F         138.7749  137.7108  161.8455 F       1  UNL1       -0.1664
@<TRIPOS>BOND
     1    28    29    1
     2    29     1    1
     3     1     2   ar
     4     2    24    1
     5    24    25    1
     6    24    26    2
     7    24    27    2
     8     2     3   ar
     9     3     4   ar
    10     4     5   ar
    11     5    30    1
    12    30    31    1
    13    31    32    1
    14    31    33    1
    15    33    34    1
    16    33    35    1
    17    33    36    1
    18     5     6   ar
    19     6     7    1
    20     7     8    2
    21     7     9   am
    22     9    10    1
    23    10    11    1
    24    11    13    1
    25    13    14   ar
    26    14    15   ar
    27    15    16   ar
    28    16    20    1
    29    20    21    1
    30    20    22    1
    31    20    23    1
    32    16    17   ar
    33    17    18   ar
    34    18    19    1
    35    11    12    1
    36     6     1   ar
    37    12     9    1
    38    18    13   ar
@<TRIPOS>MOLECULE
*****
 36 38 0 0 0
SMALL
GASTEIGER

@<TRIPOS>ATOM
      1 C         141.4389  141.7737  159.6579 C.ar    1  UNL1        0.1629
      2 C         140.8854  140.7900  158.6700 C.ar    1  UNL1        0.1398
      3 C         139.4014  140.6246  158.5274 C.ar    1  UNL1        0.0246
      4 C         138.4708  141.4429  159.3727 C.ar    1  UNL1        0.0386
      5 C         139.0243  142.4266  160.3606 C.ar    1  UNL1        0.1461
      6 C         140.5083  142.5920  160.5032 C.ar    1  UNL1        0.1226
      7 C         141.0618  143.5758  161.4911 C.2     1  UNL1        0.2550
      8 O         141.4583  144.9500  161.0393 O.2     1  UNL1       -0.2697
      9 N         141.2188  143.1852  162.9308 N.am    1  UNL1       -0.2750
     10 C         140.9419  141.9463  163.7300 C.3     1  UNL1        0.1014
     11 C         141.4407  142.6329  164.9669 C.3     1  UNL1        0.0821
     12 C         141.7175  143.8716  164.1678 C.3     1  UNL1        0.1014
     13 C         141.5976  142.2423  166.4066 C.ar    1  UNL1        0.0893
     14 N         142.6778  141.2827  166.8100 N.ar    1  UNL1       -0.2459
     15 C         142.8347  140.8922  168.2497 C.ar    1  UNL1        0.1024
     16 C         141.9115  141.4612  169.2861 C.ar    1  UNL1        0.0927
     17 C         140.8314  142.4207  168.8827 C.ar    1  UNL1        0.0363
     18 C         140.6745  142.8113  167.4430 C.ar    1  UNL1        0.1536
     19 F         139.5944  143.7708  167.0396 F       1  UNL1       -0.2029
     20 C         142.0684  141.0706  170.7258 C.3     1  UNL1        0.4201
     21 F         142.2253  140.6801  172.1656 F       1  UNL1       -0.1658
     22 F         143.3579  140.3782  170.3975 F       1  UNL1       -0.1658
     23 F         140.7789  141.7630  171.0542 F       1  UNL1       -0.1658
     24 S         141.8159  139.9717  157.8247 S.O2    1  UNL1        0.0133
     25 C         142.7464  139.1534  156.9794 C.3     1  UNL1        0.1817
     26 O         141.8118  138.8918  158.8657 O.2     1  UNL1       -0.1685
     27 O         141.8200  141.0516  156.7837 O.2     1  UNL1       -0.1685
     28 C         143.6589  141.2048  160.8816 C.3     1  UNL1        0.2525
     29 O         142.9229  141.9392  159.8005 O.3     1  UNL1       -0.4699
     30 O         138.0938  143.2449  161.2059 O.3     1  UNL1       -0.4701
     31 C         137.7338  142.7836  162.5870 C.3     1  UNL1        0.2600
     32 C         137.3527  141.3524  162.8242 C.3     1  UNL1        0.0566
     33 C         137.7550  143.7536  163.7311 C.3     1  UNL1        0.4340
     34 F         137.7762  144.7235  164.8751 F       1  UNL1       -0.1664
     35 F         137.4887  142.6301  164.6885 F       1  UNL1       -0.1664
     36 F         138.0213  144.8771  162.7736 F       1  UNL1       -0.1664
@<TRIPOS>BOND
     1    28    29    1
     2    29     1    1
     3     1     2   ar
     4     2    24    1
     5    24    25    1
     6    24    26    2
     7    24    27    2
     8     2     3   ar
     9     3     4   ar
    10     4     5   ar
    11     5    30    1
    12    30    31    1
    13    31    32    1
    14    31    33    1
    15    33    34    1
    16    33    35    1
    17    33    36    1
    18     5     6   ar
    19     6     7    1
    20     7     8    2
    21     7     9   am
    22     9    10    1
    23    10    11    1
    24    11    13    1
    25    13    14   ar
    26    14    15   ar
    27    15    16   ar
    28    16    20    1
    29    20    21    1
    30    20    22    1
    31    20    23    1
    32    16    17   ar
    33    17    18   ar
    34    18    19    1
    35    11    12    1
    36     6     1   ar
    37    12     9    1
    38    18    13   ar
