@<TRIPOS>MOLECULE
*****
 43 49 0 0 0
SMALL
GASTEIGER

@<TRIPOS>ATOM
      1 C         141.8442  140.9890  158.9801 C.ar    1  UNL1        0.1633
      2 N         142.0236  140.4684  157.5849 N.ar    1  UNL1       -0.2310
      3 C         142.3704  139.0262  157.3612 C.ar    1  UNL1        0.0620
      4 C         142.5377  138.1047  158.5329 C.ar    1  UNL1        0.0392
      5 C         142.3583  138.6253  159.9282 C.ar    1  UNL1        0.1322
      6 N         142.0115  140.0674  160.1518 N.ar    1  UNL1       -0.2121
      7 C         142.8845  136.6626  158.3093 C.3     1  UNL1        0.1031
      8 N         143.0639  136.1420  156.9140 N.3     1  UNL1       -0.2698
      9 C         142.8966  137.0636  155.7424 C.3     1  UNL1        0.0786
     10 C         142.5498  138.5057  155.9660 C.3     1  UNL1        0.0630
     11 C         141.4434  144.5187  160.7495 C.ar    1  UNL1        0.1394
     12 C         140.8040  145.3153  159.6512 C.ar    1  UNL1        0.0369
     13 C         140.5112  144.6699  158.3291 C.ar    1  UNL1        0.0032
     14 C         140.8580  143.2278  158.1054 C.ar    1  UNL1        0.0032
     15 C         141.4974  142.4312  159.2038 C.ar    1  UNL1        0.0388
     16 C         141.7901  143.0766  160.5258 C.ar    1  UNL1        0.0400
     17 O         141.7361  145.1641  162.0715 O.3     1  UNL1       -0.4656
     18 C         140.7116  145.1289  163.1665 C.3     1  UNL1        0.2893
     19 N         139.6546  142.7654  163.3829 N.am    1  UNL1       -0.3044
     20 C         139.5220  144.2225  163.0517 C.2     1  UNL1        0.2669
     21 O         138.1998  144.7729  162.6059 O.2     1  UNL1       -0.2711
     22 H         140.5224  142.4041  163.6755 H       1  UNL1        0.1494
     23 C         137.8157  142.1118  164.5964 C.3     1  UNL1        0.0196
     24 C         138.4650  141.8589  163.2681 C.3     1  UNL1        0.0570
     25 C         137.5010  140.8647  162.6920 C.3     1  UNL1        0.0196
     26 C         138.7012  141.2912  161.8999 C.3     1  UNL1        0.0196
     27 C         143.4107  134.6998  156.6904 C.3     1  UNL1        0.0578
     28 C         143.5694  133.8218  155.4846 C.3     1  UNL1        0.0160
     29 C         143.9011  132.6604  156.3740 C.3     1  UNL1        0.0028
     30 C         143.7423  133.5384  157.5798 C.3     1  UNL1        0.0160
     31 N         142.5256  137.7038  161.0998 N.pl3   1  UNL1       -0.2981
     32 H         143.2368  137.0230  161.0930 H       1  UNL1        0.1536
     33 C         141.6095  137.8195  162.2819 C.ar    1  UNL1        0.0494
     34 C         140.1280  137.6703  162.1000 C.ar    1  UNL1        0.0146
     35 C         139.2119  137.7860  163.2821 C.ar    1  UNL1        0.0011
     36 C         139.7771  138.0509  164.6460 C.ar    1  UNL1       -0.0004
     37 C         141.2585  138.2002  164.8279 C.ar    1  UNL1        0.0011
     38 C         142.1748  138.0845  163.6458 C.ar    1  UNL1        0.0146
     39 C         138.8610  138.1666  165.8280 C.2     1  UNL1        0.0249
     40 C         137.7966  137.1843  166.2181 C.2     1  UNL1        0.1194
     41 N         137.1261  137.6956  167.4587 N.2     1  UNL1       -0.1510
     42 N         137.7762  138.9939  167.8354 N.2     1  UNL1       -0.1695
     43 C         138.8484  139.2850  166.8275 C.3     1  UNL1        0.1771
@<TRIPOS>BOND
     1    23    24    1
     2    24    19    1
     3    19    20   am
     4    20    21    2
     5    20    18    1
     6    18    17    1
     7    17    11    1
     8    11    12   ar
     9    12    13   ar
    10    13    14   ar
    11    14    15   ar
    12    15     1    1
    13     1     2   ar
    14     2     3   ar
    15     3     4   ar
    16     4     5   ar
    17     5    31    1
    18    31    33    1
    19    33    34   ar
    20    34    35   ar
    21    35    36   ar
    22    36    39    1
    23    39    40    2
    24    40    41    1
    25    41    42    2
    26    42    43    1
    27    36    37   ar
    28    37    38   ar
    29     5     6   ar
    30     4     7    1
    31     7     8    1
    32     8    27    1
    33    27    28    1
    34    28    29    1
    35    29    30    1
    36     8     9    1
    37     9    10    1
    38    15    16   ar
    39    24    25    1
    40    25    26    1
    41    26    24    1
    42    16    11   ar
    43     6     1   ar
    44    30    27    1
    45    10     3    1
    46    38    33   ar
    47    43    39    1
    48    19    22    1
    49    31    32    1
@<TRIPOS>MOLECULE
*****
 43 49 0 0 0
SMALL
GASTEIGER

@<TRIPOS>ATOM
      1 C         142.9936  141.4413  160.5737 C.ar    1  UNL1        0.1633
      2 N         143.5223  141.4433  159.1700 N.ar    1  UNL1       -0.2310
      3 C         143.4344  140.2012  158.3336 C.ar    1  UNL1        0.0620
      4 C         142.8178  138.9571  158.9011 C.ar    1  UNL1        0.0392
      5 C         142.2891  138.9551  160.3049 C.ar    1  UNL1        0.1322
      6 N         142.3771  140.1972  161.1412 N.ar    1  UNL1       -0.2121
      7 C         142.7299  137.7150  158.0648 C.3     1  UNL1        0.1031
      8 N         143.2586  137.7170  156.6611 N.3     1  UNL1       -0.2698
      9 C         143.8752  138.9611  156.0937 C.3     1  UNL1        0.0786
     10 C         143.9631  140.2032  156.9299 C.3     1  UNL1        0.0630
     11 C         141.9293  144.7108  162.5556 C.ar    1  UNL1        0.1394
     12 C         143.2572  145.1676  163.0827 C.ar    1  UNL1        0.0369
     13 C         144.4973  144.3824  162.7735 C.ar    1  UNL1        0.0032
     14 C         144.4094  143.1403  161.9372 C.ar    1  UNL1        0.0032
     15 C         143.0815  142.6835  161.4101 C.ar    1  UNL1        0.0388
     16 C         141.8415  143.4687  161.7193 C.ar    1  UNL1        0.0400
     17 O         140.6892  145.4961  162.8648 O.3     1  UNL1       -0.4656
     18 C         139.6304  144.9082  163.7496 C.3     1  UNL1        0.2893
     19 N         141.0178  143.4421  165.3854 N.am    1  UNL1       -0.3044
     20 C         139.8687  143.5945  164.4334 C.2     1  UNL1        0.2669
     21 O         138.9579  142.4333  164.1651 O.2     1  UNL1       -0.2711
     22 H         141.6156  144.2042  165.5615 H       1  UNL1        0.1494
     23 C         140.4180  142.3188  167.2985 C.3     1  UNL1        0.0196
     24 C         141.2561  142.1284  166.0691 C.3     1  UNL1        0.0570
     25 C         141.7855  140.7487  166.3259 C.3     1  UNL1        0.0196
     26 C         142.1770  141.4818  165.0772 C.3     1  UNL1        0.0196
     27 C         143.1707  136.4749  155.8247 C.3     1  UNL1        0.0578
     28 C         142.6760  136.1584  154.4444 C.3     1  UNL1        0.0160
     29 C         143.0464  134.7183  154.6419 C.3     1  UNL1        0.0028
     30 C         143.5410  135.0348  156.0222 C.3     1  UNL1        0.0160
     31 N         141.6726  137.7110  160.8723 N.pl3   1  UNL1       -0.2981
     32 H         141.7871  136.8496  160.4095 H       1  UNL1        0.1536
     33 C         140.8815  137.7792  162.1449 C.ar    1  UNL1        0.0494
     34 C         141.5281  137.4207  163.4501 C.ar    1  UNL1        0.0146
     35 C         140.7370  137.4889  164.7227 C.ar    1  UNL1        0.0011
     36 C         139.2994  137.9156  164.6902 C.ar    1  UNL1       -0.0004
     37 C         138.6528  138.2741  163.3851 C.ar    1  UNL1        0.0011
     38 C         139.4438  138.2059  162.1124 C.ar    1  UNL1        0.0146
     39 C         138.5083  137.9838  165.9628 C.2     1  UNL1        0.0249
     40 C         137.5798  136.9260  166.4815 C.2     1  UNL1        0.1194
     41 N         137.0045  137.4102  167.7794 N.2     1  UNL1       -0.1510
     42 N         137.5775  138.7673  168.0628 N.2     1  UNL1       -0.1695
     43 C         138.5069  139.1217  166.9400 C.3     1  UNL1        0.1771
@<TRIPOS>BOND
     1    23    24    1
     2    24    19    1
     3    19    20   am
     4    20    21    2
     5    20    18    1
     6    18    17    1
     7    17    11    1
     8    11    12   ar
     9    12    13   ar
    10    13    14   ar
    11    14    15   ar
    12    15     1    1
    13     1     2   ar
    14     2     3   ar
    15     3     4   ar
    16     4     5   ar
    17     5    31    1
    18    31    33    1
    19    33    34   ar
    20    34    35   ar
    21    35    36   ar
    22    36    39    1
    23    39    40    2
    24    40    41    1
    25    41    42    2
    26    42    43    1
    27    36    37   ar
    28    37    38   ar
    29     5     6   ar
    30     4     7    1
    31     7     8    1
    32     8    27    1
    33    27    28    1
    34    28    29    1
    35    29    30    1
    36     8     9    1
    37     9    10    1
    38    15    16   ar
    39    24    25    1
    40    25    26    1
    41    26    24    1
    42    16    11   ar
    43     6     1   ar
    44    30    27    1
    45    10     3    1
    46    38    33   ar
    47    43    39    1
    48    19    22    1
    49    31    32    1
@<TRIPOS>MOLECULE
*****
 43 49 0 0 0
SMALL
GASTEIGER

@<TRIPOS>ATOM
      1 C         141.9357  141.4177  158.0511 C.ar    1  UNL1        0.1633
      2 N         141.3201  140.6770  156.9012 N.ar    1  UNL1       -0.2310
      3 C         141.5458  139.2016  156.7523 C.ar    1  UNL1        0.0620
      4 C         142.3872  138.4668  157.7534 C.ar    1  UNL1        0.0392
      5 C         143.0028  139.2075  158.9034 C.ar    1  UNL1        0.1322
      6 N         142.7771  140.6829  159.0522 N.ar    1  UNL1       -0.2121
      7 C         142.6129  136.9914  157.6046 C.3     1  UNL1        0.1031
      8 N         141.9973  136.2508  156.4547 N.3     1  UNL1       -0.2698
      9 C         141.1559  136.9855  155.4536 C.3     1  UNL1        0.0786
     10 C         140.9302  138.4609  155.6024 C.3     1  UNL1        0.0630
     11 C         140.5125  144.8792  159.3712 C.ar    1  UNL1        0.1394
     12 C         141.2585  145.8439  158.4978 C.ar    1  UNL1        0.0369
     13 C         142.2302  145.3333  157.4756 C.ar    1  UNL1        0.0032
     14 C         142.4560  143.8579  157.3267 C.ar    1  UNL1        0.0032
     15 C         141.7100  142.8932  158.2000 C.ar    1  UNL1        0.0388
     16 C         140.7382  143.4038  159.2222 C.ar    1  UNL1        0.0400
     17 O         139.5407  145.3898  160.3934 O.3     1  UNL1       -0.4656
     18 C         140.0204  145.7575  161.7662 C.3     1  UNL1        0.2893
     19 N         142.5325  145.1879  162.1052 N.am    1  UNL1       -0.3044
     20 C         141.0891  144.9413  162.4308 C.2     1  UNL1        0.2669
     21 O         140.7146  143.8787  163.4210 O.2     1  UNL1       -0.2711
     22 H         142.7783  145.8853  161.4553 H       1  UNL1        0.1494
     23 C         143.7067  145.0969  164.0786 C.3     1  UNL1        0.0196
     24 C         143.6013  144.3718  162.7698 C.3     1  UNL1        0.0570
     25 C         144.6334  143.3039  162.9798 C.3     1  UNL1        0.0196
     26 C         143.8671  143.3632  161.6918 C.3     1  UNL1        0.0196
     27 C         142.2230  134.7753  156.3058 C.3     1  UNL1        0.0578
     28 C         143.1193  133.7678  156.9629 C.3     1  UNL1        0.0160
     29 C         142.5423  132.6887  156.0953 C.3     1  UNL1        0.0028
     30 C         141.6461  133.6962  155.4382 C.3     1  UNL1        0.0160
     31 N         143.8442  138.4728  159.9045 N.pl3   1  UNL1       -0.2981
     32 H         144.5541  137.8633  159.5981 H       1  UNL1        0.1536
     33 C         143.6041  138.6666  161.3724 C.ar    1  UNL1        0.0494
     34 C         142.4937  137.9243  162.0552 C.ar    1  UNL1        0.0146
     35 C         142.2536  138.1181  163.5230 C.ar    1  UNL1        0.0011
     36 C         143.1237  139.0542  164.3082 C.ar    1  UNL1       -0.0004
     37 C         144.2340  139.7966  163.6255 C.ar    1  UNL1        0.0011
     38 C         144.4742  139.6028  162.1575 C.ar    1  UNL1        0.0146
     39 C         142.8835  139.2481  165.7761 C.2     1  UNL1        0.0249
     40 C         142.0059  140.2952  166.3952 C.2     1  UNL1        0.1194
     41 N         142.0588  140.1231  167.8843 N.2     1  UNL1       -0.1510
     42 N         142.9691  138.9696  168.1856 N.2     1  UNL1       -0.1695
     43 C         143.4788  138.4288  166.8826 C.3     1  UNL1        0.1771
@<TRIPOS>BOND
     1    23    24    1
     2    24    19    1
     3    19    20   am
     4    20    21    2
     5    20    18    1
     6    18    17    1
     7    17    11    1
     8    11    12   ar
     9    12    13   ar
    10    13    14   ar
    11    14    15   ar
    12    15     1    1
    13     1     2   ar
    14     2     3   ar
    15     3     4   ar
    16     4     5   ar
    17     5    31    1
    18    31    33    1
    19    33    34   ar
    20    34    35   ar
    21    35    36   ar
    22    36    39    1
    23    39    40    2
    24    40    41    1
    25    41    42    2
    26    42    43    1
    27    36    37   ar
    28    37    38   ar
    29     5     6   ar
    30     4     7    1
    31     7     8    1
    32     8    27    1
    33    27    28    1
    34    28    29    1
    35    29    30    1
    36     8     9    1
    37     9    10    1
    38    15    16   ar
    39    24    25    1
    40    25    26    1
    41    26    24    1
    42    16    11   ar
    43     6     1   ar
    44    30    27    1
    45    10     3    1
    46    38    33   ar
    47    43    39    1
    48    19    22    1
    49    31    32    1
@<TRIPOS>MOLECULE
*****
 43 49 0 0 0
SMALL
GASTEIGER

@<TRIPOS>ATOM
      1 C         141.8256  140.8978  158.9957 C.ar    1  UNL1        0.1633
      2 N         142.0787  140.3993  157.6039 N.ar    1  UNL1       -0.2310
      3 C         142.4312  138.9592  157.3754 C.ar    1  UNL1        0.0620
      4 C         142.5306  138.0177  158.5389 C.ar    1  UNL1        0.0392
      5 C         142.2774  138.5163  159.9309 C.ar    1  UNL1        0.1322
      6 N         141.9249  139.9563  160.1592 N.ar    1  UNL1       -0.2121
      7 C         142.8830  136.5778  158.3105 C.3     1  UNL1        0.1031
      8 N         143.1362  136.0793  156.9187 N.3     1  UNL1       -0.2698
      9 C         143.0369  137.0208  155.7552 C.3     1  UNL1        0.0786
     10 C         142.6844  138.4608  155.9835 C.3     1  UNL1        0.0630
     11 C         140.0317  144.1391  160.4190 C.ar    1  UNL1        0.1394
     12 C         140.7680  145.2177  159.6811 C.ar    1  UNL1        0.0369
     13 C         141.8568  144.8563  158.7147 C.ar    1  UNL1        0.0032
     14 C         142.2094  143.4163  158.4863 C.ar    1  UNL1        0.0032
     15 C         141.4731  142.3378  159.2242 C.ar    1  UNL1        0.0388
     16 C         140.3842  142.6992  160.1905 C.ar    1  UNL1        0.0400
     17 O         138.9429  144.5005  161.3854 O.3     1  UNL1       -0.4656
     18 C         139.2623  144.6895  162.8387 C.3     1  UNL1        0.2893
     19 N         140.6883  142.7966  163.9032 N.am    1  UNL1       -0.3044
     20 C         140.5692  144.2007  163.3891 C.2     1  UNL1        0.2669
     21 O         141.7570  145.1160  163.4254 O.2     1  UNL1       -0.2711
     22 H         139.9087  142.1958  163.8794 H       1  UNL1        0.1494
     23 C         142.6962  141.9457  163.1779 C.3     1  UNL1        0.0196
     24 C         141.9953  142.3078  164.4537 C.3     1  UNL1        0.0570
     25 C         143.0588  141.9447  165.4471 C.3     1  UNL1        0.0196
     26 C         141.7484  142.5001  165.9206 C.3     1  UNL1        0.0196
     27 C         143.4887  134.6393  156.6902 C.3     1  UNL1        0.0578
     28 C         143.4228  133.7041  155.5193 C.3     1  UNL1        0.0160
     29 C         143.9872  132.6028  156.3671 C.3     1  UNL1        0.0028
     30 C         144.0531  133.5380  157.5380 C.3     1  UNL1        0.0160
     31 N         142.3767  137.5748  161.0944 N.pl3   1  UNL1       -0.2981
     32 H         142.9443  136.7728  161.0316 H       1  UNL1        0.1536
     33 C         141.6113  137.8552  162.3535 C.ar    1  UNL1        0.0494
     34 C         142.3430  138.2286  163.6086 C.ar    1  UNL1        0.0146
     35 C         141.5775  138.5090  164.8678 C.ar    1  UNL1        0.0011
     36 C         140.0804  138.4160  164.8719 C.ar    1  UNL1       -0.0004
     37 C         139.3487  138.0426  163.6168 C.ar    1  UNL1        0.0011
     38 C         140.1142  137.7622  162.3576 C.ar    1  UNL1        0.0146
     39 C         139.3150  138.6964  166.1310 C.2     1  UNL1        0.0249
     40 C         137.9766  138.1252  166.4949 C.2     1  UNL1        0.1194
     41 N         137.5880  138.6730  167.8361 N.2     1  UNL1       -0.1510
     42 N         138.6863  139.5828  168.3011 N.2     1  UNL1       -0.1695
     43 C         139.7536  139.5972  167.2473 C.3     1  UNL1        0.1771
@<TRIPOS>BOND
     1    23    24    1
     2    24    19    1
     3    19    20   am
     4    20    21    2
     5    20    18    1
     6    18    17    1
     7    17    11    1
     8    11    12   ar
     9    12    13   ar
    10    13    14   ar
    11    14    15   ar
    12    15     1    1
    13     1     2   ar
    14     2     3   ar
    15     3     4   ar
    16     4     5   ar
    17     5    31    1
    18    31    33    1
    19    33    34   ar
    20    34    35   ar
    21    35    36   ar
    22    36    39    1
    23    39    40    2
    24    40    41    1
    25    41    42    2
    26    42    43    1
    27    36    37   ar
    28    37    38   ar
    29     5     6   ar
    30     4     7    1
    31     7     8    1
    32     8    27    1
    33    27    28    1
    34    28    29    1
    35    29    30    1
    36     8     9    1
    37     9    10    1
    38    15    16   ar
    39    24    25    1
    40    25    26    1
    41    26    24    1
    42    16    11   ar
    43     6     1   ar
    44    30    27    1
    45    10     3    1
    46    38    33   ar
    47    43    39    1
    48    19    22    1
    49    31    32    1
@<TRIPOS>MOLECULE
*****
 43 49 0 0 0
SMALL
GASTEIGER

@<TRIPOS>ATOM
      1 C         141.6023  141.6019  157.5870 C.ar    1  UNL1        0.1633
      2 N         140.9655  140.6798  156.5899 N.ar    1  UNL1       -0.2310
      3 C         141.3385  139.2271  156.5669 C.ar    1  UNL1        0.0620
      4 C         142.3483  138.6965  157.5410 C.ar    1  UNL1        0.0392
      5 C         142.9851  139.6187  158.5381 C.ar    1  UNL1        0.1322
      6 N         142.6121  141.0713  158.5611 N.ar    1  UNL1       -0.2121
      7 C         142.7213  137.2438  157.5179 C.3     1  UNL1        0.1031
      8 N         142.0846  136.3217  156.5209 N.3     1  UNL1       -0.2698
      9 C         141.0748  136.8523  155.5468 C.3     1  UNL1        0.0786
     10 C         140.7017  138.3050  155.5698 C.3     1  UNL1        0.0630
     11 C         140.2576  145.1084  158.8702 C.ar    1  UNL1        0.1394
     12 C         140.4833  145.9600  157.6562 C.ar    1  UNL1        0.0369
     13 C         141.0821  145.3590  156.4192 C.ar    1  UNL1        0.0032
     14 C         141.4551  143.9063  156.3961 C.ar    1  UNL1        0.0032
     15 C         141.2293  143.0547  157.6101 C.ar    1  UNL1        0.0388
     16 C         140.6306  143.6557  158.8471 C.ar    1  UNL1        0.0400
     17 O         139.6588  145.7094  160.1072 O.3     1  UNL1       -0.4656
     18 C         140.4256  145.6918  161.3963 C.3     1  UNL1        0.2893
     19 N         140.3934  145.1211  163.9308 N.am    1  UNL1       -0.3044
     20 C         139.9773  144.8097  162.5236 C.2     1  UNL1        0.2669
     21 O         139.1128  143.6162  162.2439 O.2     1  UNL1       -0.2711
     22 H         140.9608  145.9045  164.1144 H       1  UNL1        0.1494
     23 C         138.6047  144.8469  165.3473 C.3     1  UNL1        0.0196
     24 C         139.9451  144.2390  165.0581 C.3     1  UNL1        0.0570
     25 C         139.9623  143.1458  166.0849 C.3     1  UNL1        0.0196
     26 C         141.1298  143.3247  165.1604 C.3     1  UNL1        0.0196
     27 C         142.4575  134.8690  156.4978 C.3     1  UNL1        0.0578
     28 C         143.4001  134.0034  157.2804 C.3     1  UNL1        0.0160
     29 C         142.9851  132.8146  156.4653 C.3     1  UNL1        0.0028
     30 C         142.0426  133.6801  155.6827 C.3     1  UNL1        0.0160
     31 N         143.9949  139.0881  159.5121 N.pl3   1  UNL1       -0.2981
     32 H         144.8491  138.7231  159.1859 H       1  UNL1        0.1536
     33 C         143.7034  139.1136  160.9833 C.ar    1  UNL1        0.0494
     34 C         144.4564  140.0502  161.8810 C.ar    1  UNL1        0.0146
     35 C         144.1648  140.0758  163.3521 C.ar    1  UNL1        0.0011
     36 C         143.1202  139.1647  163.9256 C.ar    1  UNL1       -0.0004
     37 C         142.3672  138.2282  163.0280 C.ar    1  UNL1        0.0011
     38 C         142.6588  138.2026  161.5568 C.ar    1  UNL1        0.0146
     39 C         142.8287  139.1903  165.3968 C.2     1  UNL1        0.0249
     40 C         141.6268  139.8092  166.0468 C.2     1  UNL1        0.1194
     41 N         141.7431  139.6028  167.5280 N.2     1  UNL1       -0.1510
     42 N         143.0169  138.8563  167.7933 N.2     1  UNL1       -0.1695
     43 C         143.6877  138.6014  166.4762 C.3     1  UNL1        0.1771
@<TRIPOS>BOND
     1    23    24    1
     2    24    19    1
     3    19    20   am
     4    20    21    2
     5    20    18    1
     6    18    17    1
     7    17    11    1
     8    11    12   ar
     9    12    13   ar
    10    13    14   ar
    11    14    15   ar
    12    15     1    1
    13     1     2   ar
    14     2     3   ar
    15     3     4   ar
    16     4     5   ar
    17     5    31    1
    18    31    33    1
    19    33    34   ar
    20    34    35   ar
    21    35    36   ar
    22    36    39    1
    23    39    40    2
    24    40    41    1
    25    41    42    2
    26    42    43    1
    27    36    37   ar
    28    37    38   ar
    29     5     6   ar
    30     4     7    1
    31     7     8    1
    32     8    27    1
    33    27    28    1
    34    28    29    1
    35    29    30    1
    36     8     9    1
    37     9    10    1
    38    15    16   ar
    39    24    25    1
    40    25    26    1
    41    26    24    1
    42    16    11   ar
    43     6     1   ar
    44    30    27    1
    45    10     3    1
    46    38    33   ar
    47    43    39    1
    48    19    22    1
    49    31    32    1
@<TRIPOS>MOLECULE
*****
 43 49 0 0 0
SMALL
GASTEIGER

@<TRIPOS>ATOM
      1 C         142.8206  140.9777  160.3178 C.ar    1  UNL1        0.1633
      2 N         142.3943  139.5712  160.6176 N.ar    1  UNL1       -0.2310
      3 C         141.5036  139.2915  161.7916 C.ar    1  UNL1        0.0620
      4 C         141.0392  140.4184  162.6659 C.ar    1  UNL1        0.0392
      5 C         141.4655  141.8250  162.3661 C.ar    1  UNL1        0.1322
      6 N         142.3562  142.1046  161.1921 N.ar    1  UNL1       -0.2121
      7 C         140.1484  140.1388  163.8400 C.3     1  UNL1        0.1031
      8 N         139.7222  138.7323  164.1397 N.3     1  UNL1       -0.2698
      9 C         140.1866  137.6054  163.2654 C.3     1  UNL1        0.0786
     10 C         141.0773  137.8850  162.0914 C.3     1  UNL1        0.0630
     11 C         144.4542  140.7379  156.7089 C.ar    1  UNL1        0.1394
     12 C         145.4928  141.8166  156.7956 C.ar    1  UNL1        0.0369
     13 C         145.6407  142.6158  158.0564 C.ar    1  UNL1        0.0032
     14 C         144.7500  142.3361  159.2304 C.ar    1  UNL1        0.0032
     15 C         143.7114  141.2574  159.1437 C.ar    1  UNL1        0.0388
     16 C         143.5635  140.4582  157.8830 C.ar    1  UNL1        0.0400
     17 O         144.3063  139.9387  155.4482 O.3     1  UNL1       -0.4656
     18 C         144.8141  138.5285  155.3901 C.3     1  UNL1        0.2893
     19 N         144.3220  135.9791  155.2972 N.am    1  UNL1       -0.3044
     20 C         143.8644  137.3814  155.5698 C.2     1  UNL1        0.2669
     21 O         142.4572  137.6366  156.0221 O.2     1  UNL1       -0.2711
     22 H         145.2456  135.8117  155.0004 H       1  UNL1        0.1494
     23 C         142.6368  134.8958  154.1712 C.3     1  UNL1        0.0196
     24 C         143.3723  134.8320  155.4769 C.3     1  UNL1        0.0570
     25 C         142.6781  133.6628  156.1101 C.3     1  UNL1        0.0196
     26 C         143.7780  134.3699  156.8451 C.3     1  UNL1        0.0196
     27 C         138.8314  138.4526  165.3138 C.3     1  UNL1        0.0578
     28 C         138.1996  137.2234  165.8967 C.3     1  UNL1        0.0160
     29 C         137.5717  138.0570  166.9741 C.3     1  UNL1        0.0028
     30 C         138.2035  139.2863  166.3912 C.3     1  UNL1        0.0160
     31 N         141.0011  142.9519  163.2404 N.pl3   1  UNL1       -0.2981
     32 H         140.6584  143.7808  162.8345 H       1  UNL1        0.1536
     33 C         141.0588  142.8160  164.7331 C.ar    1  UNL1        0.0494
     34 C         139.8421  143.1079  165.5604 C.ar    1  UNL1        0.0146
     35 C         139.8999  142.9719  167.0531 C.ar    1  UNL1        0.0011
     36 C         141.1743  142.5441  167.7185 C.ar    1  UNL1       -0.0004
     37 C         142.3910  142.2522  166.8913 C.ar    1  UNL1        0.0011
     38 C         142.3333  142.3882  165.3985 C.ar    1  UNL1        0.0146
     39 C         141.2321  142.4082  169.2112 C.2     1  UNL1        0.0249
     40 C         142.4746  142.4313  170.0512 C.2     1  UNL1        0.1194
     41 N         142.0679  142.2627  171.4852 N.2     1  UNL1       -0.1510
     42 N         140.5740  142.1353  171.5313 N.2     1  UNL1       -0.1695
     43 C         140.0575  142.2252  170.1259 C.3     1  UNL1        0.1771
@<TRIPOS>BOND
     1    23    24    1
     2    24    19    1
     3    19    20   am
     4    20    21    2
     5    20    18    1
     6    18    17    1
     7    17    11    1
     8    11    12   ar
     9    12    13   ar
    10    13    14   ar
    11    14    15   ar
    12    15     1    1
    13     1     2   ar
    14     2     3   ar
    15     3     4   ar
    16     4     5   ar
    17     5    31    1
    18    31    33    1
    19    33    34   ar
    20    34    35   ar
    21    35    36   ar
    22    36    39    1
    23    39    40    2
    24    40    41    1
    25    41    42    2
    26    42    43    1
    27    36    37   ar
    28    37    38   ar
    29     5     6   ar
    30     4     7    1
    31     7     8    1
    32     8    27    1
    33    27    28    1
    34    28    29    1
    35    29    30    1
    36     8     9    1
    37     9    10    1
    38    15    16   ar
    39    24    25    1
    40    25    26    1
    41    26    24    1
    42    16    11   ar
    43     6     1   ar
    44    30    27    1
    45    10     3    1
    46    38    33   ar
    47    43    39    1
    48    19    22    1
    49    31    32    1
@<TRIPOS>MOLECULE
*****
 43 49 0 0 0
SMALL
GASTEIGER

@<TRIPOS>ATOM
      1 C         141.2895  141.6249  157.4693 C.ar    1  UNL1        0.1633
      2 N         142.3713  141.0488  156.6045 N.ar    1  UNL1       -0.2310
      3 C         142.6146  139.5687  156.5940 C.ar    1  UNL1        0.0620
      4 C         141.7761  138.6647  157.4483 C.ar    1  UNL1        0.0392
      5 C         140.6943  139.2409  158.3131 C.ar    1  UNL1        0.1322
      6 N         140.4511  140.7210  158.3236 N.ar    1  UNL1       -0.2121
      7 C         142.0194  137.1847  157.4378 C.3     1  UNL1        0.1031
      8 N         143.1012  136.6085  156.5730 N.3     1  UNL1       -0.2698
      9 C         143.9396  137.5125  155.7188 C.3     1  UNL1        0.0786
     10 C         143.6964  138.9926  155.7293 C.3     1  UNL1        0.0630
     11 C         140.2587  145.2470  158.7216 C.ar    1  UNL1        0.1394
     12 C         140.5596  146.0652  157.5009 C.ar    1  UNL1        0.0369
     13 C         141.1038  145.4034  156.2698 C.ar    1  UNL1        0.0032
     14 C         141.3471  143.9233  156.2592 C.ar    1  UNL1        0.0032
     15 C         141.0462  143.1051  157.4798 C.ar    1  UNL1        0.0388
     16 C         140.5020  143.7669  158.7110 C.ar    1  UNL1        0.0400
     17 O         139.7145  145.9088  159.9527 O.3     1  UNL1       -0.4656
     18 C         140.3823  145.6920  161.2782 C.3     1  UNL1        0.2893
     19 N         138.4061  144.3404  162.2871 N.am    1  UNL1       -0.3044
     20 C         139.8758  144.6297  162.2083 C.2     1  UNL1        0.2669
     21 O         140.8391  143.8568  163.0596 O.2     1  UNL1       -0.2711
     22 H         137.7738  144.8477  161.7284 H       1  UNL1        0.1494
     23 C         137.8081  144.0677  164.4893 C.3     1  UNL1        0.0196
     24 C         137.8997  143.2781  163.2172 C.3     1  UNL1        0.0570
     25 C         137.4250  141.9416  163.7056 C.3     1  UNL1        0.0196
     26 C         137.8153  142.1196  162.2682 C.3     1  UNL1        0.0196
     27 C         143.3445  135.1284  156.5625 C.3     1  UNL1        0.0578
     28 C         143.4858  134.0843  155.4948 C.3     1  UNL1        0.0160
     29 C         143.6886  133.0352  156.5475 C.3     1  UNL1        0.0028
     30 C         143.5473  134.0793  157.6152 C.3     1  UNL1        0.0160
     31 N         139.8558  138.3369  159.1673 N.pl3   1  UNL1       -0.2981
     32 H         139.3537  137.5969  158.7557 H       1  UNL1        0.1536
     33 C         139.7824  138.5605  160.6487 C.ar    1  UNL1        0.0494
     34 C         138.5457  138.1749  161.4050 C.ar    1  UNL1        0.0146
     35 C         138.4722  138.3985  162.8864 C.ar    1  UNL1        0.0011
     36 C         139.6354  139.0076  163.6116 C.ar    1  UNL1       -0.0004
     37 C         140.8721  139.3932  162.8554 C.ar    1  UNL1        0.0011
     38 C         140.9456  139.1696  161.3739 C.ar    1  UNL1        0.0146
     39 C         139.5620  139.2312  165.0930 C.2     1  UNL1        0.0249
     40 C         140.6754  139.7299  165.9657 C.2     1  UNL1        0.1194
     41 N         140.1638  139.8022  167.3739 N.2     1  UNL1       -0.1510
     42 N         138.7341  139.3482  167.3715 N.2     1  UNL1       -0.1695
     43 C         138.3622  138.9953  165.9618 C.3     1  UNL1        0.1771
@<TRIPOS>BOND
     1    23    24    1
     2    24    19    1
     3    19    20   am
     4    20    21    2
     5    20    18    1
     6    18    17    1
     7    17    11    1
     8    11    12   ar
     9    12    13   ar
    10    13    14   ar
    11    14    15   ar
    12    15     1    1
    13     1     2   ar
    14     2     3   ar
    15     3     4   ar
    16     4     5   ar
    17     5    31    1
    18    31    33    1
    19    33    34   ar
    20    34    35   ar
    21    35    36   ar
    22    36    39    1
    23    39    40    2
    24    40    41    1
    25    41    42    2
    26    42    43    1
    27    36    37   ar
    28    37    38   ar
    29     5     6   ar
    30     4     7    1
    31     7     8    1
    32     8    27    1
    33    27    28    1
    34    28    29    1
    35    29    30    1
    36     8     9    1
    37     9    10    1
    38    15    16   ar
    39    24    25    1
    40    25    26    1
    41    26    24    1
    42    16    11   ar
    43     6     1   ar
    44    30    27    1
    45    10     3    1
    46    38    33   ar
    47    43    39    1
    48    19    22    1
    49    31    32    1
@<TRIPOS>MOLECULE
*****
 43 49 0 0 0
SMALL
GASTEIGER

@<TRIPOS>ATOM
      1 C         142.9743  139.0449  157.6164 C.ar    1  UNL1        0.1633
      2 N         143.1846  140.5153  157.8252 N.ar    1  UNL1       -0.2310
      3 C         143.4095  141.0519  159.2078 C.ar    1  UNL1        0.0620
      4 C         143.4240  140.1180  160.3816 C.ar    1  UNL1        0.0392
      5 C         143.2137  138.6475  160.1727 C.ar    1  UNL1        0.1322
      6 N         142.9888  138.1110  158.7901 N.ar    1  UNL1       -0.2121
      7 C         143.6489  140.6545  161.7642 C.3     1  UNL1        0.1031
      8 N         143.8592  142.1249  161.9730 N.3     1  UNL1       -0.2698
      9 C         143.8447  143.0588  160.7992 C.3     1  UNL1        0.0786
     10 C         143.6199  142.5223  159.4167 C.3     1  UNL1        0.0630
     11 C         141.8713  136.6346  154.6627 C.ar    1  UNL1        0.1394
     12 C         142.2996  137.4351  153.4687 C.ar    1  UNL1        0.0369
     13 C         142.9528  138.7722  153.6572 C.ar    1  UNL1        0.0032
     14 C         143.1776  139.3088  155.0398 C.ar    1  UNL1        0.0032
     15 C         142.7494  138.5083  156.2338 C.ar    1  UNL1        0.0388
     16 C         142.0962  137.1712  156.0453 C.ar    1  UNL1        0.0400
     17 O         141.2182  135.2975  154.4742 O.3     1  UNL1       -0.4656
     18 C         142.0608  134.0726  154.2752 C.3     1  UNL1        0.2893
     19 N         143.9823  133.6263  155.9659 N.am    1  UNL1       -0.3044
     20 C         142.6000  133.3320  155.4629 C.2     1  UNL1        0.2669
     21 O         141.7572  132.2973  156.1477 O.2     1  UNL1       -0.2711
     22 H         144.5355  134.3054  155.5165 H       1  UNL1        0.1494
     23 C         144.0435  133.7812  158.2580 C.3     1  UNL1        0.0196
     24 C         144.5216  132.8857  157.1537 C.3     1  UNL1        0.0570
     25 C         145.2268  131.8342  157.9579 C.3     1  UNL1        0.0196
     26 C         145.1869  131.7330  156.4619 C.3     1  UNL1        0.0196
     27 C         144.0841  142.6615  163.3556 C.3     1  UNL1        0.0578
     28 C         144.5026  142.0686  164.6684 C.3     1  UNL1        0.0160
     29 C         144.4022  143.4203  165.3109 C.3     1  UNL1        0.0028
     30 C         143.9837  144.0132  163.9981 C.3     1  UNL1        0.0160
     31 N         143.2282  137.7137  161.3465 N.pl3   1  UNL1       -0.2981
     32 H         143.9393  137.0379  161.4290 H       1  UNL1        0.1536
     33 C         142.1592  137.8094  162.3943 C.ar    1  UNL1        0.0494
     34 C         142.5348  138.0089  163.8329 C.ar    1  UNL1        0.0146
     35 C         141.4659  138.1046  164.8808 C.ar    1  UNL1        0.0011
     36 C         140.0213  138.0010  164.4902 C.ar    1  UNL1       -0.0004
     37 C         139.6457  137.8016  163.0518 C.ar    1  UNL1        0.0011
     38 C         140.7147  137.7058  162.0038 C.ar    1  UNL1        0.0146
     39 C         138.9524  138.0968  165.5381 C.2     1  UNL1        0.0249
     40 C         138.1302  136.9584  166.0656 C.2     1  UNL1        0.1194
     41 N         137.1876  137.5058  167.0960 N.2     1  UNL1       -0.1510
     42 N         137.4272  138.9825  167.2054 N.2     1  UNL1       -0.1695
     43 C         138.5179  139.3477  166.2426 C.3     1  UNL1        0.1771
@<TRIPOS>BOND
     1    23    24    1
     2    24    19    1
     3    19    20   am
     4    20    21    2
     5    20    18    1
     6    18    17    1
     7    17    11    1
     8    11    12   ar
     9    12    13   ar
    10    13    14   ar
    11    14    15   ar
    12    15     1    1
    13     1     2   ar
    14     2     3   ar
    15     3     4   ar
    16     4     5   ar
    17     5    31    1
    18    31    33    1
    19    33    34   ar
    20    34    35   ar
    21    35    36   ar
    22    36    39    1
    23    39    40    2
    24    40    41    1
    25    41    42    2
    26    42    43    1
    27    36    37   ar
    28    37    38   ar
    29     5     6   ar
    30     4     7    1
    31     7     8    1
    32     8    27    1
    33    27    28    1
    34    28    29    1
    35    29    30    1
    36     8     9    1
    37     9    10    1
    38    15    16   ar
    39    24    25    1
    40    25    26    1
    41    26    24    1
    42    16    11   ar
    43     6     1   ar
    44    30    27    1
    45    10     3    1
    46    38    33   ar
    47    43    39    1
    48    19    22    1
    49    31    32    1
@<TRIPOS>MOLECULE
*****
 43 49 0 0 0
SMALL
GASTEIGER

@<TRIPOS>ATOM
      1 C         140.9460  142.2362  158.0100 C.ar    1  UNL1        0.1633
      2 N         140.7181  142.8163  156.6456 N.ar    1  UNL1       -0.2310
      3 C         140.2825  144.2444  156.5010 C.ar    1  UNL1        0.0620
      4 C         140.0748  145.0923  157.7208 C.ar    1  UNL1        0.0392
      5 C         140.3027  144.5122  159.0852 C.ar    1  UNL1        0.1322
      6 N         140.7383  143.0841  159.2298 N.ar    1  UNL1       -0.2121
      7 C         139.6392  146.5204  157.5762 C.3     1  UNL1        0.1031
      8 N         139.4113  147.1005  156.2119 N.3     1  UNL1       -0.2698
      9 C         139.6190  146.2525  154.9921 C.3     1  UNL1        0.0786
     10 C         140.0546  144.8245  155.1367 C.3     1  UNL1        0.0630
     11 C         143.0040  139.0407  159.1516 C.ar    1  UNL1        0.1394
     12 C         142.2530  137.9521  158.4439 C.ar    1  UNL1        0.0369
     13 C         141.0663  138.2916  157.5915 C.ar    1  UNL1        0.0032
     14 C         140.6307  139.7196  157.4468 C.ar    1  UNL1        0.0032
     15 C         141.3817  140.8081  158.1546 C.ar    1  UNL1        0.0388
     16 C         142.5683  140.4687  159.0070 C.ar    1  UNL1        0.0400
     17 O         144.1907  138.7012  160.0040 O.3     1  UNL1       -0.4656
     18 C         143.9941  138.0229  161.3273 C.3     1  UNL1        0.2893
     19 N         141.7875  137.2279  162.4449 N.am    1  UNL1       -0.3044
     20 C         142.7736  138.3185  162.1477 C.2     1  UNL1        0.2669
     21 O         142.5392  139.7046  162.6709 O.2     1  UNL1       -0.2711
     22 H         141.9413  136.3181  162.1015 H       1  UNL1        0.1494
     23 C         139.6298  137.9751  162.1846 C.3     1  UNL1        0.0196
     24 C         140.5670  137.5235  163.2653 C.3     1  UNL1        0.0570
     25 C         139.6720  137.6622  164.4609 C.3     1  UNL1        0.0196
     26 C         141.0802  137.1745  164.6308 C.3     1  UNL1        0.0196
     27 C         138.9756  148.5286  156.0673 C.3     1  UNL1        0.0578
     28 C         138.2808  149.5203  156.9525 C.3     1  UNL1        0.0160
     29 C         138.3595  150.5481  155.8629 C.3     1  UNL1        0.0028
     30 C         139.0544  149.5564  154.9776 C.3     1  UNL1        0.0160
     31 N         140.0950  145.3601  160.3050 N.pl3   1  UNL1       -0.2981
     32 H         139.8040  146.2958  160.2103 H       1  UNL1        0.1536
     33 C         140.3307  144.7824  161.6690 C.ar    1  UNL1        0.0494
     34 C         141.7229  144.7113  162.2231 C.ar    1  UNL1        0.0146
     35 C         141.9586  144.1335  163.5872 C.ar    1  UNL1        0.0011
     36 C         140.8022  143.6269  164.3972 C.ar    1  UNL1       -0.0004
     37 C         139.4101  143.6979  163.8431 C.ar    1  UNL1        0.0011
     38 C         139.1743  144.2757  162.4790 C.ar    1  UNL1        0.0146
     39 C         141.0379  143.0491  165.7612 C.2     1  UNL1        0.0249
     40 C         140.0306  142.9660  166.8696 C.2     1  UNL1        0.1194
     41 N         140.6924  142.3186  168.0498 N.2     1  UNL1       -0.1510
     42 N         142.1088  142.0016  167.6707 N.2     1  UNL1       -0.1695
     43 C         142.3222  142.4531  166.2563 C.3     1  UNL1        0.1771
@<TRIPOS>BOND
     1    23    24    1
     2    24    19    1
     3    19    20   am
     4    20    21    2
     5    20    18    1
     6    18    17    1
     7    17    11    1
     8    11    12   ar
     9    12    13   ar
    10    13    14   ar
    11    14    15   ar
    12    15     1    1
    13     1     2   ar
    14     2     3   ar
    15     3     4   ar
    16     4     5   ar
    17     5    31    1
    18    31    33    1
    19    33    34   ar
    20    34    35   ar
    21    35    36   ar
    22    36    39    1
    23    39    40    2
    24    40    41    1
    25    41    42    2
    26    42    43    1
    27    36    37   ar
    28    37    38   ar
    29     5     6   ar
    30     4     7    1
    31     7     8    1
    32     8    27    1
    33    27    28    1
    34    28    29    1
    35    29    30    1
    36     8     9    1
    37     9    10    1
    38    15    16   ar
    39    24    25    1
    40    25    26    1
    41    26    24    1
    42    16    11   ar
    43     6     1   ar
    44    30    27    1
    45    10     3    1
    46    38    33   ar
    47    43    39    1
    48    19    22    1
    49    31    32    1
