@<TRIPOS>MOLECULE
*****
 32 36 0 0 0
SMALL
GASTEIGER

@<TRIPOS>ATOM
      1 O         143.4305  140.5413  157.1817 O.2     1  UNL1       -0.2647
      2 C         143.1433  139.2820  157.9443 C.2     1  UNL1        0.3054
      3 N         143.4198  139.2177  159.4172 N.am    1  UNL1       -0.2719
      4 C         143.1326  137.9584  160.1799 C.3     1  UNL1        0.0976
      5 C         143.4090  137.8941  161.6528 C.3     1  UNL1        0.0651
      6 C         143.9727  139.0890  162.3630 C.3     1  UNL1        0.1693
      7 C         144.2600  140.3483  161.6003 C.3     1  UNL1        0.0651
      8 C         143.9835  140.4127  160.1274 C.3     1  UNL1        0.0976
      9 C         142.5796  138.0871  157.2341 C.ar    1  UNL1        0.3139
     10 N         143.3404  136.8561  156.8393 N.ar    1  UNL1       -0.1831
     11 C         142.3871  135.9216  156.1552 C.ar    1  UNL1        0.2037
     12 N         141.0372  136.5750  156.1273 N.ar    1  UNL1       -0.0554
     13 O         141.1561  137.9133  156.7941 O.2     1  UNL1       -0.3276
     14 C         142.7245  134.5707  155.5971 C.ar    1  UNL1        0.0391
     15 C         143.7289  133.7011  156.2933 C.ar    1  UNL1        0.0032
     16 C         144.0663  132.3503  155.7352 C.ar    1  UNL1        0.0001
     17 C         143.3992  131.8692  154.4807 C.ar    1  UNL1        0.0000
     18 C         142.3948  132.7389  153.7845 C.ar    1  UNL1        0.0001
     19 C         142.0575  134.0896  154.3426 C.ar    1  UNL1        0.0032
     20 O         144.2492  139.0247  163.8359 O.3     1  UNL1       -0.4791
     21 C         143.1578  139.3317  164.8180 C.ar    1  UNL1        0.1384
     22 C         143.3696  139.0720  166.2801 C.ar    1  UNL1        0.0366
     23 C         142.2781  139.3790  167.2621 C.ar    1  UNL1        0.0002
     24 C         140.9750  139.9458  166.7821 C.ar    1  UNL1       -0.0059
     25 C         140.7632  140.2055  165.3201 C.ar    1  UNL1        0.0002
     26 C         141.8546  139.8985  164.3380 C.ar    1  UNL1        0.0366
     27 C         139.8834  140.2529  167.7642 C.3     1  UNL1        0.0991
     28 N         140.0216  141.4178  168.6991 N.3     1  UNL1       -0.2690
     29 C         139.6286  141.4381  170.1465 C.3     1  UNL1        0.0724
     30 C         139.9412  142.7997  170.6927 C.3     1  UNL1        0.0188
     31 C         140.5274  143.6209  169.5828 C.3     1  UNL1        0.0188
     32 C         140.5772  142.7669  168.3506 C.3     1  UNL1        0.0724
@<TRIPOS>BOND
     1     1     2    2
     2     2     9    1
     3     9    10   ar
     4    10    11   ar
     5    11    14    1
     6    14    15   ar
     7    15    16   ar
     8    16    17   ar
     9    17    18   ar
    10    18    19   ar
    11    11    12   ar
    12    12    13   ar
    13     2     3   am
    14     3     4    1
    15     4     5    1
    16     5     6    1
    17     6    20    1
    18    20    21    1
    19    21    22   ar
    20    22    23   ar
    21    23    24   ar
    22    24    27    1
    23    27    28    1
    24    28    29    1
    25    29    30    1
    26    30    31    1
    27    31    32    1
    28    24    25   ar
    29    25    26   ar
    30     6     7    1
    31     7     8    1
    32    13     9   ar
    33     8     3    1
    34    19    14   ar
    35    26    21   ar
    36    32    28    1
@<TRIPOS>MOLECULE
*****
 32 36 0 0 0
SMALL
GASTEIGER

@<TRIPOS>ATOM
      1 O         140.5427  141.8564  157.3492 O.2     1  UNL1       -0.2647
      2 C         139.9212  140.6789  158.0400 C.2     1  UNL1        0.3054
      3 N         139.2888  140.8490  159.3894 N.am    1  UNL1       -0.2719
      4 C         138.6673  139.6715  160.0802 C.3     1  UNL1        0.0976
      5 C         138.0349  139.8417  161.4297 C.3     1  UNL1        0.0651
      6 C         138.0239  141.1893  162.0883 C.3     1  UNL1        0.1693
      7 C         138.6454  142.3668  161.3975 C.3     1  UNL1        0.0651
      8 C         139.2779  142.1967  160.0481 C.3     1  UNL1        0.0976
      9 C         139.9322  139.3313  157.3813 C.ar    1  UNL1        0.3139
     10 N         141.1267  138.4386  157.2197 N.ar    1  UNL1       -0.1831
     11 C         140.6833  137.1954  156.5072 C.ar    1  UNL1        0.2037
     12 N         139.2146  137.3197  156.2284 N.ar    1  UNL1       -0.0554
     13 O         138.7504  138.6398  156.7686 O.2     1  UNL1       -0.3276
     14 C         141.5553  136.0320  156.1381 C.ar    1  UNL1        0.0391
     15 C         142.8442  135.7992  156.8693 C.ar    1  UNL1        0.0032
     16 C         143.7162  134.6358  156.5002 C.ar    1  UNL1        0.0001
     17 C         143.2993  133.7053  155.4001 C.ar    1  UNL1        0.0000
     18 C         142.0105  133.9381  154.6690 C.ar    1  UNL1        0.0001
     19 C         141.1385  135.1015  155.0380 C.ar    1  UNL1        0.0032
     20 O         137.3914  141.3594  163.4379 O.3     1  UNL1       -0.4791
     21 C         138.1753  141.0477  164.6782 C.ar    1  UNL1        0.1384
     22 C         138.0499  139.7006  165.3260 C.ar    1  UNL1        0.0366
     23 C         138.8337  139.3890  166.5663 C.ar    1  UNL1        0.0002
     24 C         139.7431  140.4244  167.1588 C.ar    1  UNL1       -0.0059
     25 C         139.8685  141.7714  166.5110 C.ar    1  UNL1        0.0002
     26 C         139.0846  142.0831  165.2707 C.ar    1  UNL1        0.0366
     27 C         140.5270  140.1128  168.3992 C.3     1  UNL1        0.0991
     28 N         141.4916  141.1209  168.9498 N.3     1  UNL1       -0.2690
     29 C         142.9641  141.1771  168.6693 C.3     1  UNL1        0.0724
     30 C         143.5356  142.3407  169.4237 C.3     1  UNL1        0.0188
     31 C         142.4164  143.0038  170.1706 C.3     1  UNL1        0.0188
     32 C         141.1531  142.2499  169.8777 C.3     1  UNL1        0.0724
@<TRIPOS>BOND
     1     1     2    2
     2     2     9    1
     3     9    10   ar
     4    10    11   ar
     5    11    14    1
     6    14    15   ar
     7    15    16   ar
     8    16    17   ar
     9    17    18   ar
    10    18    19   ar
    11    11    12   ar
    12    12    13   ar
    13     2     3   am
    14     3     4    1
    15     4     5    1
    16     5     6    1
    17     6    20    1
    18    20    21    1
    19    21    22   ar
    20    22    23   ar
    21    23    24   ar
    22    24    27    1
    23    27    28    1
    24    28    29    1
    25    29    30    1
    26    30    31    1
    27    31    32    1
    28    24    25   ar
    29    25    26   ar
    30     6     7    1
    31     7     8    1
    32    13     9   ar
    33     8     3    1
    34    19    14   ar
    35    26    21   ar
    36    32    28    1
@<TRIPOS>MOLECULE
*****
 32 36 0 0 0
SMALL
GASTEIGER

@<TRIPOS>ATOM
      1 O         143.9969  139.6699  158.5718 O.2     1  UNL1       -0.2647
      2 C         142.7388  138.8637  158.7028 C.2     1  UNL1        0.3054
      3 N         141.7035  139.2489  159.7175 N.am    1  UNL1       -0.2719
      4 C         140.4454  138.4427  159.8485 C.3     1  UNL1        0.0976
      5 C         139.4100  138.8279  160.8632 C.3     1  UNL1        0.0651
      6 C         139.6328  140.0194  161.7468 C.3     1  UNL1        0.1693
      7 C         140.8908  140.8257  161.6158 C.3     1  UNL1        0.0651
      8 C         141.9262  140.4404  160.6011 C.3     1  UNL1        0.0976
      9 C         142.5161  137.6722  157.8192 C.ar    1  UNL1        0.3139
     10 N         143.3445  136.4218  157.7997 N.ar    1  UNL1       -0.1831
     11 C         142.7663  135.4987  156.7684 C.ar    1  UNL1        0.2037
     12 N         141.5805  136.1786  156.1506 N.ar    1  UNL1       -0.0554
     13 O         141.4259  137.5218  156.7999 O.2     1  UNL1       -0.3276
     14 C         143.2831  134.1351  156.4167 C.ar    1  UNL1        0.0391
     15 C         142.8510  133.4754  155.1408 C.ar    1  UNL1        0.0032
     16 C         143.3678  132.1119  154.7892 C.ar    1  UNL1        0.0001
     17 C         144.3167  131.4081  155.7135 C.ar    1  UNL1        0.0000
     18 C         144.7488  132.0678  156.9894 C.ar    1  UNL1        0.0001
     19 C         144.2320  133.4314  157.3410 C.ar    1  UNL1        0.0032
     20 O         138.5973  140.4047  162.7615 O.3     1  UNL1       -0.4791
     21 C         138.9459  140.4195  164.2204 C.ar    1  UNL1        0.1384
     22 C         138.7478  139.1866  165.0515 C.ar    1  UNL1        0.0366
     23 C         139.0964  139.2015  166.5102 C.ar    1  UNL1        0.0002
     24 C         139.6432  140.4493  167.1380 C.ar    1  UNL1       -0.0059
     25 C         139.8412  141.6821  166.3070 C.ar    1  UNL1        0.0002
     26 C         139.4926  141.6673  164.8481 C.ar    1  UNL1        0.0366
     27 C         139.9918  140.4642  168.5969 C.3     1  UNL1        0.0991
     28 N         141.1528  141.2806  169.0823 N.3     1  UNL1       -0.2690
     29 C         141.0668  142.5667  169.8495 C.3     1  UNL1        0.0724
     30 C         142.4645  143.0352  170.1270 C.3     1  UNL1        0.0188
     31 C         143.4143  142.0387  169.5312 C.3     1  UNL1        0.0188
     32 C         142.6037  140.9543  168.8855 C.3     1  UNL1        0.0724
@<TRIPOS>BOND
     1     1     2    2
     2     2     9    1
     3     9    10   ar
     4    10    11   ar
     5    11    14    1
     6    14    15   ar
     7    15    16   ar
     8    16    17   ar
     9    17    18   ar
    10    18    19   ar
    11    11    12   ar
    12    12    13   ar
    13     2     3   am
    14     3     4    1
    15     4     5    1
    16     5     6    1
    17     6    20    1
    18    20    21    1
    19    21    22   ar
    20    22    23   ar
    21    23    24   ar
    22    24    27    1
    23    27    28    1
    24    28    29    1
    25    29    30    1
    26    30    31    1
    27    31    32    1
    28    24    25   ar
    29    25    26   ar
    30     6     7    1
    31     7     8    1
    32    13     9   ar
    33     8     3    1
    34    19    14   ar
    35    26    21   ar
    36    32    28    1
@<TRIPOS>MOLECULE
*****
 32 36 0 0 0
SMALL
GASTEIGER

@<TRIPOS>ATOM
      1 O         137.3586  139.4438  160.8875 O.2     1  UNL1       -0.2647
      2 C         138.6934  139.0130  161.4192 C.2     1  UNL1        0.3054
      3 N         139.8095  138.6891  160.4707 N.am    1  UNL1       -0.2719
      4 C         141.1443  138.2583  161.0024 C.3     1  UNL1        0.0976
      5 C         142.2603  137.9345  160.0539 C.3     1  UNL1        0.0651
      6 C         142.0415  138.0414  158.5738 C.3     1  UNL1        0.1693
      7 C         140.7067  138.4722  158.0422 C.3     1  UNL1        0.0651
      8 C         139.5907  138.7961  158.9906 C.3     1  UNL1        0.0976
      9 C         138.9122  138.9061  162.8993 C.ar    1  UNL1        0.3139
     10 N         139.2020  140.0443  163.8322 N.ar    1  UNL1       -0.1831
     11 C         139.3485  139.4838  165.2158 C.ar    1  UNL1        0.2037
     12 N         139.1493  137.9991  165.1380 N.ar    1  UNL1       -0.0554
     13 O         138.8797  137.6420  163.7063 O.2     1  UNL1       -0.3276
     14 C         139.6427  140.2700  166.4591 C.ar    1  UNL1        0.0391
     15 C         140.3243  141.6025  166.3601 C.ar    1  UNL1        0.0032
     16 C         140.6184  142.3885  167.6033 C.ar    1  UNL1        0.0001
     17 C         140.2308  141.8422  168.9454 C.ar    1  UNL1        0.0000
     18 C         139.5492  140.5097  169.0443 C.ar    1  UNL1        0.0001
     19 C         139.2551  139.7236  167.8012 C.ar    1  UNL1        0.0032
     20 O         143.1576  137.7175  157.6253 O.3     1  UNL1       -0.4791
     21 C         143.1137  136.4533  156.8192 C.ar    1  UNL1        0.1384
     22 C         142.8667  136.5146  155.3409 C.ar    1  UNL1        0.0366
     23 C         142.8228  135.2504  154.5349 C.ar    1  UNL1        0.0002
     24 C         143.0259  133.9249  155.2070 C.ar    1  UNL1       -0.0059
     25 C         143.2728  133.8636  156.6852 C.ar    1  UNL1        0.0002
     26 C         143.3167  135.1278  157.4913 C.ar    1  UNL1        0.0366
     27 C         142.9820  132.6606  154.4009 C.3     1  UNL1        0.0991
     28 N         143.2457  131.3402  155.0619 N.3     1  UNL1       -0.2690
     29 C         142.2424  130.5121  155.8087 C.3     1  UNL1        0.0724
     30 C         142.9356  129.2761  156.3005 C.3     1  UNL1        0.0188
     31 C         144.3673  129.3403  155.8576 C.3     1  UNL1        0.0188
     32 C         144.5590  130.6160  155.0921 C.3     1  UNL1        0.0724
@<TRIPOS>BOND
     1     1     2    2
     2     2     9    1
     3     9    10   ar
     4    10    11   ar
     5    11    14    1
     6    14    15   ar
     7    15    16   ar
     8    16    17   ar
     9    17    18   ar
    10    18    19   ar
    11    11    12   ar
    12    12    13   ar
    13     2     3   am
    14     3     4    1
    15     4     5    1
    16     5     6    1
    17     6    20    1
    18    20    21    1
    19    21    22   ar
    20    22    23   ar
    21    23    24   ar
    22    24    27    1
    23    27    28    1
    24    28    29    1
    25    29    30    1
    26    30    31    1
    27    31    32    1
    28    24    25   ar
    29    25    26   ar
    30     6     7    1
    31     7     8    1
    32    13     9   ar
    33     8     3    1
    34    19    14   ar
    35    26    21   ar
    36    32    28    1
@<TRIPOS>MOLECULE
*****
 32 36 0 0 0
SMALL
GASTEIGER

@<TRIPOS>ATOM
      1 O         140.2918  138.8414  157.7095 O.2     1  UNL1       -0.2647
      2 C         141.7057  138.5577  158.1223 C.2     1  UNL1        0.3054
      3 N         142.2795  139.2219  159.3386 N.am    1  UNL1       -0.2719
      4 C         143.6934  138.9382  159.7514 C.3     1  UNL1        0.0976
      5 C         144.2672  139.6024  160.9677 C.3     1  UNL1        0.0651
      6 C         143.4272  140.5504  161.7713 C.3     1  UNL1        0.1693
      7 C         142.0133  140.8341  161.3585 C.3     1  UNL1        0.0651
      8 C         141.4395  140.1699  160.1422 C.3     1  UNL1        0.0976
      9 C         142.5457  137.6097  157.3187 C.ar    1  UNL1        0.3139
     10 N         142.3752  136.1210  157.2510 N.ar    1  UNL1       -0.1831
     11 C         143.4279  135.5753  156.3322 C.ar    1  UNL1        0.2037
     12 N         144.2489  136.7267  155.8321 N.ar    1  UNL1       -0.0554
     13 O         143.7037  137.9841  156.4418 O.2     1  UNL1       -0.3276
     14 C         143.6249  134.1315  155.9760 C.ar    1  UNL1        0.0391
     15 C         142.9767  133.5671  154.7467 C.ar    1  UNL1        0.0032
     16 C         143.1738  132.1234  154.3905 C.ar    1  UNL1        0.0001
     17 C         144.0190  131.2441  155.2637 C.ar    1  UNL1        0.0000
     18 C         144.6672  131.8085  156.4931 C.ar    1  UNL1        0.0001
     19 C         144.4701  133.2522  156.8492 C.ar    1  UNL1        0.0032
     20 O         144.0011  141.2146  162.9877 O.3     1  UNL1       -0.4791
     21 C         143.6064  140.7436  164.3560 C.ar    1  UNL1        0.1384
     22 C         143.6774  139.2844  164.6964 C.ar    1  UNL1        0.0366
     23 C         143.2828  138.8135  166.0647 C.ar    1  UNL1        0.0002
     24 C         142.8171  139.8016  167.0927 C.ar    1  UNL1       -0.0059
     25 C         142.7461  141.2607  166.7523 C.ar    1  UNL1        0.0002
     26 C         143.1408  141.7317  165.3840 C.ar    1  UNL1        0.0366
     27 C         142.4224  139.3306  168.4611 C.3     1  UNL1        0.0991
     28 N         141.4491  140.1286  169.2771 N.3     1  UNL1       -0.2690
     29 C         139.9677  140.2066  169.0546 C.3     1  UNL1        0.0724
     30 C         139.3893  141.1148  170.0989 C.3     1  UNL1        0.0188
     31 C         140.5132  141.5981  170.9668 C.3     1  UNL1        0.0188
     32 C         141.7862  140.9886  170.4590 C.3     1  UNL1        0.0724
@<TRIPOS>BOND
     1     1     2    2
     2     2     9    1
     3     9    10   ar
     4    10    11   ar
     5    11    14    1
     6    14    15   ar
     7    15    16   ar
     8    16    17   ar
     9    17    18   ar
    10    18    19   ar
    11    11    12   ar
    12    12    13   ar
    13     2     3   am
    14     3     4    1
    15     4     5    1
    16     5     6    1
    17     6    20    1
    18    20    21    1
    19    21    22   ar
    20    22    23   ar
    21    23    24   ar
    22    24    27    1
    23    27    28    1
    24    28    29    1
    25    29    30    1
    26    30    31    1
    27    31    32    1
    28    24    25   ar
    29    25    26   ar
    30     6     7    1
    31     7     8    1
    32    13     9   ar
    33     8     3    1
    34    19    14   ar
    35    26    21   ar
    36    32    28    1
@<TRIPOS>MOLECULE
*****
 32 36 0 0 0
SMALL
GASTEIGER

@<TRIPOS>ATOM
      1 O         142.6715  142.8055  158.8344 O.2     1  UNL1       -0.2647
      2 C         141.1988  143.0878  158.8697 C.2     1  UNL1        0.3054
      3 N         140.3689  142.5991  160.0197 N.am    1  UNL1       -0.2719
      4 C         138.8961  142.8815  160.0550 C.3     1  UNL1        0.0976
      5 C         138.0662  142.3928  161.2050 C.3     1  UNL1        0.0651
      6 C         138.7090  141.6218  162.3196 C.3     1  UNL1        0.1693
      7 C         140.1818  141.3395  162.2842 C.3     1  UNL1        0.0651
      8 C         141.0117  141.8282  161.1343 C.3     1  UNL1        0.0976
      9 C         140.5559  143.8588  157.7551 C.ar    1  UNL1        0.3139
     10 N         140.5889  145.3482  157.5797 N.ar    1  UNL1       -0.1831
     11 C         139.8206  145.6856  156.3364 C.ar    1  UNL1        0.2037
     12 N         139.3128  144.4048  155.7434 N.ar    1  UNL1       -0.0554
     13 O         139.7672  143.2758  156.6201 O.2     1  UNL1       -0.3276
     14 C         139.5990  147.0622  155.7832 C.ar    1  UNL1        0.0391
     15 C         140.1793  147.4379  154.4520 C.ar    1  UNL1        0.0032
     16 C         139.9577  148.8145  153.8989 C.ar    1  UNL1        0.0001
     17 C         139.1558  149.8153  154.6770 C.ar    1  UNL1        0.0000
     18 C         138.5756  149.4396  156.0082 C.ar    1  UNL1        0.0001
     19 C         138.7972  148.0630  156.5613 C.ar    1  UNL1        0.0032
     20 O         137.8790  141.1331  163.4696 O.3     1  UNL1       -0.4791
     21 C         138.5102  140.9223  164.8139 C.ar    1  UNL1        0.1384
     22 C         139.3299  142.0132  165.4369 C.ar    1  UNL1        0.0366
     23 C         139.9611  141.8024  166.7812 C.ar    1  UNL1        0.0002
     24 C         139.7726  140.5007  167.5024 C.ar    1  UNL1       -0.0059
     25 C         138.9530  139.4099  166.8794 C.ar    1  UNL1        0.0002
     26 C         138.3218  139.6207  165.5351 C.ar    1  UNL1        0.0366
     27 C         140.4038  140.2899  168.8468 C.3     1  UNL1        0.0991
     28 N         141.5001  141.2020  169.3119 N.3     1  UNL1       -0.2690
     29 C         141.3323  142.4042  170.1932 C.3     1  UNL1        0.0724
     30 C         142.6851  143.0172  170.4034 C.3     1  UNL1        0.0188
     31 C         143.6889  142.1938  169.6521 C.3     1  UNL1        0.0188
     32 C         142.9566  141.0719  168.9775 C.3     1  UNL1        0.0724
@<TRIPOS>BOND
     1     1     2    2
     2     2     9    1
     3     9    10   ar
     4    10    11   ar
     5    11    14    1
     6    14    15   ar
     7    15    16   ar
     8    16    17   ar
     9    17    18   ar
    10    18    19   ar
    11    11    12   ar
    12    12    13   ar
    13     2     3   am
    14     3     4    1
    15     4     5    1
    16     5     6    1
    17     6    20    1
    18    20    21    1
    19    21    22   ar
    20    22    23   ar
    21    23    24   ar
    22    24    27    1
    23    27    28    1
    24    28    29    1
    25    29    30    1
    26    30    31    1
    27    31    32    1
    28    24    25   ar
    29    25    26   ar
    30     6     7    1
    31     7     8    1
    32    13     9   ar
    33     8     3    1
    34    19    14   ar
    35    26    21   ar
    36    32    28    1
@<TRIPOS>MOLECULE
*****
 32 36 0 0 0
SMALL
GASTEIGER

@<TRIPOS>ATOM
      1 O         140.7288  140.5974  156.4485 O.2     1  UNL1       -0.2647
      2 C         140.8492  139.4732  157.4342 C.2     1  UNL1        0.3054
      3 N         140.1049  139.5334  158.7350 N.am    1  UNL1       -0.2719
      4 C         140.2253  138.4091  159.7207 C.3     1  UNL1        0.0976
      5 C         139.4809  138.4693  161.0215 C.3     1  UNL1        0.0651
      6 C         138.6161  139.6537  161.3367 C.3     1  UNL1        0.1693
      7 C         138.4957  140.7779  160.3511 C.3     1  UNL1        0.0651
      8 C         139.2401  140.7178  159.0502 C.3     1  UNL1        0.0976
      9 C         141.7140  138.2888  157.1190 C.ar    1  UNL1        0.3139
     10 N         141.2425  136.8766  156.9358 N.ar    1  UNL1       -0.1831
     11 C         142.4392  136.0237  156.6353 C.ar    1  UNL1        0.2037
     12 N         143.6504  136.9087  156.6327 N.ar    1  UNL1       -0.0554
     13 O         143.2022  138.3086  156.9316 O.2     1  UNL1       -0.3276
     14 C         142.4270  134.5453  156.3818 C.ar    1  UNL1        0.0391
     15 C         143.3240  133.6410  157.1741 C.ar    1  UNL1        0.0032
     16 C         143.3117  132.1627  156.9206 C.ar    1  UNL1        0.0001
     17 C         142.4025  131.5886  155.8748 C.ar    1  UNL1        0.0000
     18 C         141.5055  132.4928  155.0825 C.ar    1  UNL1        0.0001
     19 C         141.5178  133.9711  155.3360 C.ar    1  UNL1        0.0032
     20 O         137.8717  139.7138  162.6377 O.3     1  UNL1       -0.4791
     21 C         138.6249  139.8574  163.9269 C.ar    1  UNL1        0.1384
     22 C         138.0298  139.3439  165.2044 C.ar    1  UNL1        0.0366
     23 C         138.7831  139.4874  166.4935 C.ar    1  UNL1        0.0002
     24 C         140.1315  140.1445  166.5051 C.ar    1  UNL1       -0.0059
     25 C         140.7266  140.6579  165.2276 C.ar    1  UNL1        0.0002
     26 C         139.9733  140.5144  163.9385 C.ar    1  UNL1        0.0366
     27 C         140.8848  140.2880  167.7943 C.3     1  UNL1        0.0991
     28 N         140.5827  141.4322  168.7161 N.3     1  UNL1       -0.2690
     29 C         140.0248  141.3226  170.1041 C.3     1  UNL1        0.0724
     30 C         139.8828  142.7095  170.6575 C.3     1  UNL1        0.0188
     31 C         140.3530  143.6763  169.6114 C.3     1  UNL1        0.0188
     32 C         140.7856  142.8870  168.4116 C.3     1  UNL1        0.0724
@<TRIPOS>BOND
     1     1     2    2
     2     2     9    1
     3     9    10   ar
     4    10    11   ar
     5    11    14    1
     6    14    15   ar
     7    15    16   ar
     8    16    17   ar
     9    17    18   ar
    10    18    19   ar
    11    11    12   ar
    12    12    13   ar
    13     2     3   am
    14     3     4    1
    15     4     5    1
    16     5     6    1
    17     6    20    1
    18    20    21    1
    19    21    22   ar
    20    22    23   ar
    21    23    24   ar
    22    24    27    1
    23    27    28    1
    24    28    29    1
    25    29    30    1
    26    30    31    1
    27    31    32    1
    28    24    25   ar
    29    25    26   ar
    30     6     7    1
    31     7     8    1
    32    13     9   ar
    33     8     3    1
    34    19    14   ar
    35    26    21   ar
    36    32    28    1
@<TRIPOS>MOLECULE
*****
 32 36 0 0 0
SMALL
GASTEIGER

@<TRIPOS>ATOM
      1 O         139.2549  146.4788  160.8788 O.2     1  UNL1       -0.2647
      2 C         140.2345  145.5280  160.2573 C.2     1  UNL1        0.3054
      3 N         141.2530  144.8349  161.1131 N.am    1  UNL1       -0.2719
      4 C         142.2327  143.8841  160.4916 C.3     1  UNL1        0.0976
      5 C         143.2511  143.1910  161.3473 C.3     1  UNL1        0.0651
      6 C         143.2900  143.4488  162.8245 C.3     1  UNL1        0.1693
      7 C         142.3104  144.3996  163.4460 C.3     1  UNL1        0.0651
      8 C         141.2919  145.0927  162.5902 C.3     1  UNL1        0.0976
      9 C         140.1957  145.2702  158.7801 C.ar    1  UNL1        0.3139
     10 N         140.6918  146.1970  157.7101 N.ar    1  UNL1       -0.1831
     11 C         140.4566  145.5400  156.3823 C.ar    1  UNL1        0.2037
     12 N         139.8151  144.2072  156.6317 N.ar    1  UNL1       -0.0554
     13 O         139.6539  144.0404  158.1136 O.2     1  UNL1       -0.3276
     14 C         140.8022  146.1148  155.0406 C.ar    1  UNL1        0.0391
     15 C         141.7464  145.3844  154.1323 C.ar    1  UNL1        0.0032
     16 C         142.0920  145.9593  152.7907 C.ar    1  UNL1        0.0001
     17 C         141.4933  147.2646  152.3573 C.ar    1  UNL1        0.0000
     18 C         140.5491  147.9950  153.2655 C.ar    1  UNL1        0.0001
     19 C         140.2035  147.4201  154.6071 C.ar    1  UNL1        0.0032
     20 O         144.3086  142.7556  163.6803 O.3     1  UNL1       -0.4791
     21 C         143.8653  141.9036  164.8324 C.ar    1  UNL1        0.1384
     22 C         143.7448  140.4180  164.6639 C.ar    1  UNL1        0.0366
     23 C         143.3015  139.5660  165.8160 C.ar    1  UNL1        0.0002
     24 C         142.9788  140.1996  167.1368 C.ar    1  UNL1       -0.0059
     25 C         143.0993  141.6851  167.3053 C.ar    1  UNL1        0.0002
     26 C         143.5426  142.5372  166.1532 C.ar    1  UNL1        0.0366
     27 C         142.5355  139.3475  168.2890 C.3     1  UNL1        0.0991
     28 N         141.2946  139.7049  169.0523 N.3     1  UNL1       -0.2690
     29 C         141.1610  139.7523  170.5456 C.3     1  UNL1        0.0724
     30 C         139.7533  140.1543  170.8725 C.3     1  UNL1        0.0188
     31 C         139.0170  140.3555  169.5812 C.3     1  UNL1        0.0188
     32 C         139.9695  140.0778  168.4562 C.3     1  UNL1        0.0724
@<TRIPOS>BOND
     1     1     2    2
     2     2     9    1
     3     9    10   ar
     4    10    11   ar
     5    11    14    1
     6    14    15   ar
     7    15    16   ar
     8    16    17   ar
     9    17    18   ar
    10    18    19   ar
    11    11    12   ar
    12    12    13   ar
    13     2     3   am
    14     3     4    1
    15     4     5    1
    16     5     6    1
    17     6    20    1
    18    20    21    1
    19    21    22   ar
    20    22    23   ar
    21    23    24   ar
    22    24    27    1
    23    27    28    1
    24    28    29    1
    25    29    30    1
    26    30    31    1
    27    31    32    1
    28    24    25   ar
    29    25    26   ar
    30     6     7    1
    31     7     8    1
    32    13     9   ar
    33     8     3    1
    34    19    14   ar
    35    26    21   ar
    36    32    28    1
@<TRIPOS>MOLECULE
*****
 32 36 0 0 0
SMALL
GASTEIGER

@<TRIPOS>ATOM
      1 O         140.9770  136.8929  163.7112 O.2     1  UNL1       -0.2647
      2 C         139.9455  137.9786  163.7970 C.2     1  UNL1        0.3054
      3 N         139.3502  138.5483  162.5436 N.am    1  UNL1       -0.2719
      4 C         138.3187  139.6339  162.6295 C.3     1  UNL1        0.0976
      5 C         137.7235  140.2036  161.3760 C.3     1  UNL1        0.0651
      6 C         138.1597  139.6876  160.0368 C.3     1  UNL1        0.1693
      7 C         139.1911  138.6020  159.9510 C.3     1  UNL1        0.0651
      8 C         139.7864  138.0323  161.2044 C.3     1  UNL1        0.0976
      9 C         139.5093  138.4946  165.1363 C.ar    1  UNL1        0.3139
     10 N         140.1290  139.6367  165.8856 N.ar    1  UNL1       -0.1831
     11 C         139.3795  139.8070  167.1737 C.ar    1  UNL1        0.2037
     12 N         138.2966  138.7701  167.2205 N.ar    1  UNL1       -0.0554
     13 O         138.3768  137.9590  165.9613 O.2     1  UNL1       -0.3276
     14 C         139.6632  140.8339  168.2297 C.ar    1  UNL1        0.0391
     15 C         139.2587  140.5791  169.6515 C.ar    1  UNL1        0.0032
     16 C         139.5423  141.6060  170.7074 C.ar    1  UNL1        0.0001
     17 C         140.2304  142.8877  170.3416 C.ar    1  UNL1        0.0000
     18 C         140.6349  143.1425  168.9198 C.ar    1  UNL1        0.0001
     19 C         140.3513  142.1156  167.8639 C.ar    1  UNL1        0.0032
     20 O         137.5643  140.2574  158.7833 O.3     1  UNL1       -0.4791
     21 C         138.3455  141.2389  157.9609 C.ar    1  UNL1        0.1384
     22 C         139.0820  142.3606  158.6311 C.ar    1  UNL1        0.0366
     23 C         139.8632  143.3420  157.8086 C.ar    1  UNL1        0.0002
     24 C         139.9078  143.2017  156.3159 C.ar    1  UNL1       -0.0059
     25 C         139.1714  142.0800  155.6457 C.ar    1  UNL1        0.0002
     26 C         138.3902  141.0986  156.4681 C.ar    1  UNL1        0.0366
     27 C         140.6890  144.1832  155.4933 C.3     1  UNL1        0.0991
     28 N         140.1733  145.5785  155.3008 N.3     1  UNL1       -0.2690
     29 C         139.0147  146.1980  156.0246 C.3     1  UNL1        0.0724
     30 C         138.8510  147.6017  155.5217 C.3     1  UNL1        0.0188
     31 C         139.9084  147.8497  154.4871 C.3     1  UNL1        0.0188
     32 C         140.7257  146.5994  154.3505 C.3     1  UNL1        0.0724
@<TRIPOS>BOND
     1     1     2    2
     2     2     9    1
     3     9    10   ar
     4    10    11   ar
     5    11    14    1
     6    14    15   ar
     7    15    16   ar
     8    16    17   ar
     9    17    18   ar
    10    18    19   ar
    11    11    12   ar
    12    12    13   ar
    13     2     3   am
    14     3     4    1
    15     4     5    1
    16     5     6    1
    17     6    20    1
    18    20    21    1
    19    21    22   ar
    20    22    23   ar
    21    23    24   ar
    22    24    27    1
    23    27    28    1
    24    28    29    1
    25    29    30    1
    26    30    31    1
    27    31    32    1
    28    24    25   ar
    29    25    26   ar
    30     6     7    1
    31     7     8    1
    32    13     9   ar
    33     8     3    1
    34    19    14   ar
    35    26    21   ar
    36    32    28    1
