@<TRIPOS>MOLECULE
*****
 27 30 0 0 0
SMALL
GASTEIGER

@<TRIPOS>ATOM
      1 C         141.2792  138.7103  158.0527 C.3     1  UNL1        0.1355
      2 C         141.7874  137.4050  157.5158 C.3     1  UNL1        0.0700
      3 C         143.0799  137.6692  156.8020 C.3     1  UNL1        0.1834
      4 C         143.3706  139.1376  156.8976 C.3     1  UNL1        0.1130
      5 N         142.2577  139.7810  157.6706 N.3     1  UNL1       -0.2882
      6 H         141.7950  140.4823  157.0923 H       1  UNL1        0.1237
      7 O         138.7511  139.3040  158.1287 O.2     1  UNL1       -0.2734
      8 C         140.0146  138.9097  158.8343 C.2     1  UNL1        0.2401
      9 N         140.0135  138.7147  160.3215 N.am    1  UNL1       -0.2770
     10 C         141.3282  138.3212  160.9273 C.3     1  UNL1        0.0949
     11 C         141.6520  138.0548  162.3676 C.3     1  UNL1        0.0388
     12 C         140.7411  138.1161  163.5576 C.3     1  UNL1        0.0739
     13 N         139.2815  138.4589  163.6016 N.3     1  UNL1       -0.2725
     14 C         138.3722  138.8251  162.4662 C.3     1  UNL1        0.0938
     15 C         138.6981  138.9389  161.0064 C.3     1  UNL1        0.1107
     16 C         138.6472  138.4320  164.9606 C.3     1  UNL1        0.0576
     17 C         138.2601  137.3541  165.9293 C.3     1  UNL1        0.0160
     18 C         137.7502  138.3939  166.8826 C.3     1  UNL1        0.0028
     19 C         138.1373  139.4718  165.9140 C.3     1  UNL1        0.0160
     20 O         143.9322  136.6446  156.1134 O.3     1  UNL1       -0.4777
     21 C         143.4463  135.2318  155.9803 C.ar    1  UNL1        0.1385
     22 C         142.7619  134.7896  154.7209 C.ar    1  UNL1        0.0378
     23 C         142.2760  133.3768  154.5877 C.ar    1  UNL1        0.0145
     24 C         142.4744  132.4061  155.7139 C.ar    1  UNL1        0.0579
     25 CL        141.9885  130.9933  155.5808 Cl      1  UNL1       -0.0822
     26 C         143.1587  132.8483  156.9734 C.ar    1  UNL1        0.0145
     27 C         143.6446  134.2612  157.1065 C.ar    1  UNL1        0.0378
@<TRIPOS>BOND
     1     7     8    2
     2     8     1    1
     3     1     2    1
     4     2     3    1
     5     3    20    1
     6    20    21    1
     7    21    22   ar
     8    22    23   ar
     9    23    24   ar
    10    24    25    1
    11    24    26   ar
    12    26    27   ar
    13     3     4    1
    14     4     5    1
    15     8     9   am
    16     9    10    1
    17    10    11    1
    18    11    12    1
    19    12    13    1
    20    13    16    1
    21    16    17    1
    22    17    18    1
    23    18    19    1
    24    13    14    1
    25    14    15    1
    26     5     1    1
    27    15     9    1
    28    27    21   ar
    29    19    16    1
    30     5     6    1
@<TRIPOS>MOLECULE
*****
 27 30 0 0 0
SMALL
GASTEIGER

@<TRIPOS>ATOM
      1 C         142.6503  138.3421  158.7770 C.3     1  UNL1        0.1355
      2 C         142.6530  137.1022  157.9329 C.3     1  UNL1        0.0700
      3 C         142.4623  137.5143  156.5033 C.3     1  UNL1        0.1834
      4 C         142.3418  139.0089  156.4639 C.3     1  UNL1        0.1130
      5 N         142.4580  139.5205  157.8691 N.3     1  UNL1       -0.2882
      6 H         141.6073  140.0208  158.1268 H       1  UNL1        0.1237
      7 O         144.1832  138.4580  160.8715 O.2     1  UNL1       -0.2734
      8 C         142.8117  138.3944  160.2674 C.2     1  UNL1        0.2401
      9 N         141.6016  138.3832  161.1537 N.am    1  UNL1       -0.2770
     10 C         140.2791  138.3180  160.4486 C.3     1  UNL1        0.0949
     11 C         138.9024  138.2922  161.0436 C.3     1  UNL1        0.0388
     12 C         138.5081  138.3251  162.4903 C.3     1  UNL1        0.0739
     13 N         139.3930  138.3919  163.6997 N.3     1  UNL1       -0.2725
     14 C         140.8909  138.4424  163.7608 C.3     1  UNL1        0.0938
     15 C         141.8738  138.4385  162.6276 C.3     1  UNL1        0.1107
     16 C         138.6867  138.4108  165.0228 C.3     1  UNL1        0.0576
     17 C         138.1616  139.4841  165.9297 C.3     1  UNL1        0.0160
     18 C         137.6878  138.4375  166.8940 C.3     1  UNL1        0.0028
     19 C         138.2128  137.3641  165.9873 C.3     1  UNL1        0.0160
     20 O         142.4025  136.5934  155.3207 O.3     1  UNL1       -0.4777
     21 C         142.5040  135.1101  155.5193 C.ar    1  UNL1        0.1385
     22 C         143.7995  134.5002  155.9664 C.ar    1  UNL1        0.0378
     23 C         143.9010  133.0169  156.1650 C.ar    1  UNL1        0.0145
     24 C         142.7071  132.1435  155.9166 C.ar    1  UNL1        0.0579
     25 CL        142.8086  130.6601  156.1152 Cl      1  UNL1       -0.0822
     26 C         141.4117  132.7534  155.4695 C.ar    1  UNL1        0.0145
     27 C         141.3102  134.2367  155.2708 C.ar    1  UNL1        0.0378
@<TRIPOS>BOND
     1     7     8    2
     2     8     1    1
     3     1     2    1
     4     2     3    1
     5     3    20    1
     6    20    21    1
     7    21    22   ar
     8    22    23   ar
     9    23    24   ar
    10    24    25    1
    11    24    26   ar
    12    26    27   ar
    13     3     4    1
    14     4     5    1
    15     8     9   am
    16     9    10    1
    17    10    11    1
    18    11    12    1
    19    12    13    1
    20    13    16    1
    21    16    17    1
    22    17    18    1
    23    18    19    1
    24    13    14    1
    25    14    15    1
    26     5     1    1
    27    15     9    1
    28    27    21   ar
    29    19    16    1
    30     5     6    1
@<TRIPOS>MOLECULE
*****
 27 30 0 0 0
SMALL
GASTEIGER

@<TRIPOS>ATOM
      1 C         138.9815  138.8672  165.3361 C.3     1  UNL1        0.1355
      2 C         139.6794  139.5658  166.4652 C.3     1  UNL1        0.0700
      3 C         138.8423  139.4027  167.6992 C.3     1  UNL1        0.1834
      4 C         137.6272  138.6033  167.3327 C.3     1  UNL1        0.1130
      5 N         137.7133  138.2724  165.8722 N.3     1  UNL1       -0.2882
      6 H         136.9112  138.6661  165.3802 H       1  UNL1        0.1237
      7 O         140.2685  137.5920  163.4739 O.2     1  UNL1       -0.2734
      8 C         139.4669  138.7790  163.9195 C.2     1  UNL1        0.2401
      9 N         139.1507  139.8777  162.9485 N.am    1  UNL1       -0.2770
     10 C         138.3440  141.0177  163.4960 C.3     1  UNL1        0.0949
     11 C         137.8703  142.2528  162.7886 C.3     1  UNL1        0.0388
     12 C         138.0863  142.6528  161.3592 C.3     1  UNL1        0.0739
     13 N         138.8293  141.9166  160.2840 N.3     1  UNL1       -0.2725
     14 C         139.5399  140.5985  160.3728 C.3     1  UNL1        0.0938
     15 C         139.6828  139.6912  161.5587 C.3     1  UNL1        0.1107
     16 C         138.8668  142.5871  158.9428 C.3     1  UNL1        0.0576
     17 C         138.1155  142.4251  157.6546 C.3     1  UNL1        0.0160
     18 C         138.9197  143.5353  157.0459 C.3     1  UNL1        0.0028
     19 C         139.6710  143.6975  158.3340 C.3     1  UNL1        0.0160
     20 O         139.1639  139.9441  169.0607 O.3     1  UNL1       -0.4777
     21 C         140.4822  140.6153  169.3087 C.ar    1  UNL1        0.1385
     22 C         140.6167  142.0972  169.1194 C.ar    1  UNL1        0.0378
     23 C         141.9349  142.7684  169.3674 C.ar    1  UNL1        0.0145
     24 C         143.1188  141.9578  169.8048 C.ar    1  UNL1        0.0579
     25 CL        144.4371  142.6290  170.0528 Cl      1  UNL1       -0.0822
     26 C         142.9843  140.4758  169.9941 C.ar    1  UNL1        0.0145
     27 C         141.6660  139.8046  169.7461 C.ar    1  UNL1        0.0378
@<TRIPOS>BOND
     1     7     8    2
     2     8     1    1
     3     1     2    1
     4     2     3    1
     5     3    20    1
     6    20    21    1
     7    21    22   ar
     8    22    23   ar
     9    23    24   ar
    10    24    25    1
    11    24    26   ar
    12    26    27   ar
    13     3     4    1
    14     4     5    1
    15     8     9   am
    16     9    10    1
    17    10    11    1
    18    11    12    1
    19    12    13    1
    20    13    16    1
    21    16    17    1
    22    17    18    1
    23    18    19    1
    24    13    14    1
    25    14    15    1
    26     5     1    1
    27    15     9    1
    28    27    21   ar
    29    19    16    1
    30     5     6    1
@<TRIPOS>MOLECULE
*****
 27 30 0 0 0
SMALL
GASTEIGER

@<TRIPOS>ATOM
      1 C         138.1313  140.9903  160.5274 C.3     1  UNL1        0.1355
      2 C         138.8424  142.2542  160.9106 C.3     1  UNL1        0.0700
      3 C         138.4168  142.6221  162.3012 C.3     1  UNL1        0.1834
      4 C         137.4428  141.5855  162.7773 C.3     1  UNL1        0.1130
      5 N         137.2664  140.5771  161.6811 N.3     1  UNL1       -0.2882
      6 H         136.2894  140.5505  161.3891 H       1  UNL1        0.1237
      7 O         137.1606  140.3460  158.2052 O.2     1  UNL1       -0.2734
      8 C         138.2623  140.2667  159.2200 C.2     1  UNL1        0.2401
      9 N         139.4951  139.4638  158.9274 N.am    1  UNL1       -0.2770
     10 C         140.5349  139.4505  160.0085 C.3     1  UNL1        0.0949
     11 C         141.8615  138.7505  160.0216 C.3     1  UNL1        0.0388
     12 C         142.4758  137.8909  158.9570 C.3     1  UNL1        0.0739
     13 N         141.9154  137.5189  157.6162 N.3     1  UNL1       -0.2725
     14 C         140.6022  137.9147  157.0090 C.3     1  UNL1        0.0938
     15 C         139.5250  138.7803  157.5926 C.3     1  UNL1        0.1107
     16 C         142.7829  136.6341  156.7709 C.3     1  UNL1        0.0576
     17 C         142.9672  135.1522  156.6290 C.3     1  UNL1        0.0160
     18 C         144.0098  135.3828  155.5755 C.3     1  UNL1        0.0028
     19 C         143.8256  136.8646  155.7174 C.3     1  UNL1        0.0160
     20 O         138.8834  143.8168  163.0790 O.3     1  UNL1       -0.4777
     21 C         140.2931  143.8765  163.5881 C.ar    1  UNL1        0.1385
     22 C         141.1471  145.0738  163.2929 C.ar    1  UNL1        0.0378
     23 C         142.5567  145.1335  163.8020 C.ar    1  UNL1        0.0145
     24 C         143.1125  143.9959  164.6063 C.ar    1  UNL1        0.0579
     25 CL        144.5222  144.0555  165.1155 Cl      1  UNL1       -0.0822
     26 C         142.2585  142.7986  164.9015 C.ar    1  UNL1        0.0145
     27 C         140.8488  142.7389  164.3924 C.ar    1  UNL1        0.0378
@<TRIPOS>BOND
     1     7     8    2
     2     8     1    1
     3     1     2    1
     4     2     3    1
     5     3    20    1
     6    20    21    1
     7    21    22   ar
     8    22    23   ar
     9    23    24   ar
    10    24    25    1
    11    24    26   ar
    12    26    27   ar
    13     3     4    1
    14     4     5    1
    15     8     9   am
    16     9    10    1
    17    10    11    1
    18    11    12    1
    19    12    13    1
    20    13    16    1
    21    16    17    1
    22    17    18    1
    23    18    19    1
    24    13    14    1
    25    14    15    1
    26     5     1    1
    27    15     9    1
    28    27    21   ar
    29    19    16    1
    30     5     6    1
@<TRIPOS>MOLECULE
*****
 27 30 0 0 0
SMALL
GASTEIGER

@<TRIPOS>ATOM
      1 C         141.8552  137.9282  162.1366 C.3     1  UNL1        0.1355
      2 C         142.5380  138.8669  163.0867 C.3     1  UNL1        0.0700
      3 C         142.3205  138.3555  164.4800 C.3     1  UNL1        0.1834
      4 C         141.5034  137.1009  164.3909 C.3     1  UNL1        0.1130
      5 N         141.2158  136.8368  162.9427 N.3     1  UNL1       -0.2882
      6 H         140.2081  136.8347  162.7846 H       1  UNL1        0.1237
      7 O         142.9395  137.5050  159.8138 O.2     1  UNL1       -0.2734
      8 C         141.8184  138.0582  160.6427 C.2     1  UNL1        0.2401
      9 N         140.6605  138.7414  159.9776 N.am    1  UNL1       -0.2770
     10 C         139.5940  139.2580  160.8974 C.3     1  UNL1        0.0949
     11 C         138.3257  139.9785  160.5474 C.3     1  UNL1        0.0388
     12 C         137.8107  140.3603  159.1914 C.3     1  UNL1        0.0739
     13 N         138.4367  140.1160  157.8503 N.3     1  UNL1       -0.2725
     14 C         139.7323  139.4295  157.5341 C.3     1  UNL1        0.0938
     15 C         140.7220  138.8177  158.4809 C.3     1  UNL1        0.1107
     16 C         137.6650  140.6255  156.6693 C.3     1  UNL1        0.0576
     17 C         137.3767  140.1129  155.2893 C.3     1  UNL1        0.0160
     18 C         136.5737  141.3461  154.9990 C.3     1  UNL1        0.0028
     19 C         136.8619  141.8588  156.3789 C.3     1  UNL1        0.0160
     20 O         142.8307  138.9879  165.7409 O.3     1  UNL1       -0.4777
     21 C         141.8682  139.4078  166.8120 C.ar    1  UNL1        0.1385
     22 C         140.4442  139.7213  166.4598 C.ar    1  UNL1        0.0378
     23 C         139.4817  140.1412  167.5308 C.ar    1  UNL1        0.0145
     24 C         139.9430  140.2475  168.9541 C.ar    1  UNL1        0.0579
     25 CL        138.9805  140.6674  170.0252 Cl      1  UNL1       -0.0822
     26 C         141.3670  139.9340  169.3063 C.ar    1  UNL1        0.0145
     27 C         142.3295  139.5142  168.2352 C.ar    1  UNL1        0.0378
@<TRIPOS>BOND
     1     7     8    2
     2     8     1    1
     3     1     2    1
     4     2     3    1
     5     3    20    1
     6    20    21    1
     7    21    22   ar
     8    22    23   ar
     9    23    24   ar
    10    24    25    1
    11    24    26   ar
    12    26    27   ar
    13     3     4    1
    14     4     5    1
    15     8     9   am
    16     9    10    1
    17    10    11    1
    18    11    12    1
    19    12    13    1
    20    13    16    1
    21    16    17    1
    22    17    18    1
    23    18    19    1
    24    13    14    1
    25    14    15    1
    26     5     1    1
    27    15     9    1
    28    27    21   ar
    29    19    16    1
    30     5     6    1
@<TRIPOS>MOLECULE
*****
 27 30 0 0 0
SMALL
GASTEIGER

@<TRIPOS>ATOM
      1 C         138.5116  140.0339  165.2760 C.3     1  UNL1        0.1355
      2 C         139.2899  140.4974  166.4716 C.3     1  UNL1        0.0700
      3 C         138.8402  139.6954  167.6568 C.3     1  UNL1        0.1834
      4 C         137.7840  138.7363  167.1936 C.3     1  UNL1        0.1130
      5 N         137.5809  138.9456  165.7223 N.3     1  UNL1       -0.2882
      6 H         136.6153  139.2202  165.5417 H       1  UNL1        0.1237
      7 O         137.8525  141.7703  163.4593 O.2     1  UNL1       -0.2734
      8 C         138.6412  140.5656  163.8794 C.2     1  UNL1        0.2401
      9 N         139.5597  139.8926  162.9029 N.am    1  UNL1       -0.2770
     10 C         140.3010  138.6973  163.4244 C.3     1  UNL1        0.0949
     11 C         141.2811  137.8180  162.7058 C.3     1  UNL1        0.0388
     12 C         141.7619  137.9168  161.2885 C.3     1  UNL1        0.0739
     13 N         141.3814  138.9193  160.2395 N.3     1  UNL1       -0.2725
     14 C         140.4261  140.0706  160.3489 C.3     1  UNL1        0.0938
     15 C         139.6154  140.5037  161.5343 C.3     1  UNL1        0.1107
     16 C         142.0438  138.7478  158.9047 C.3     1  UNL1        0.0576
     17 C         143.1794  139.4187  158.1901 C.3     1  UNL1        0.0160
     18 C         142.9806  138.5054  157.0169 C.3     1  UNL1        0.0028
     19 C         141.8451  137.8345  157.7314 C.3     1  UNL1        0.0160
     20 O         139.3561  139.8291  169.0589 O.3     1  UNL1       -0.4777
     21 C         140.6431  140.5546  169.3186 C.ar    1  UNL1        0.1385
     22 C         141.8977  139.7805  169.5956 C.ar    1  UNL1        0.0378
     23 C         143.1846  140.5059  169.8552 C.ar    1  UNL1        0.0145
     24 C         143.2170  142.0054  169.8378 C.ar    1  UNL1        0.0579
     25 CL        144.5040  142.7309  170.0975 Cl      1  UNL1       -0.0822
     26 C         141.9624  142.7795  169.5608 C.ar    1  UNL1        0.0145
     27 C         140.6755  142.0540  169.3012 C.ar    1  UNL1        0.0378
@<TRIPOS>BOND
     1     7     8    2
     2     8     1    1
     3     1     2    1
     4     2     3    1
     5     3    20    1
     6    20    21    1
     7    21    22   ar
     8    22    23   ar
     9    23    24   ar
    10    24    25    1
    11    24    26   ar
    12    26    27   ar
    13     3     4    1
    14     4     5    1
    15     8     9   am
    16     9    10    1
    17    10    11    1
    18    11    12    1
    19    12    13    1
    20    13    16    1
    21    16    17    1
    22    17    18    1
    23    18    19    1
    24    13    14    1
    25    14    15    1
    26     5     1    1
    27    15     9    1
    28    27    21   ar
    29    19    16    1
    30     5     6    1
@<TRIPOS>MOLECULE
*****
 27 30 0 0 0
SMALL
GASTEIGER

@<TRIPOS>ATOM
      1 C         141.6557  144.9193  162.5587 C.3     1  UNL1        0.1355
      2 C         141.3388  144.3702  161.1993 C.3     1  UNL1        0.0700
      3 C         140.2305  145.1939  160.6134 C.3     1  UNL1        0.1834
      4 C         139.8625  146.2521  161.6109 C.3     1  UNL1        0.1130
      5 N         140.7433  146.0823  162.8130 N.3     1  UNL1       -0.2882
      6 H         140.1717  145.8999  163.6379 H       1  UNL1        0.1237
      7 O         144.1508  144.6890  163.2455 O.2     1  UNL1       -0.2734
      8 C         142.7014  144.3969  163.4987 C.2     1  UNL1        0.2401
      9 N         142.2979  143.5825  164.6920 N.am    1  UNL1       -0.2770
     10 C         140.8248  143.3490  164.8524 C.3     1  UNL1        0.0949
     11 C         140.1108  142.5846  165.9276 C.3     1  UNL1        0.0388
     12 C         140.6934  141.8650  167.1076 C.3     1  UNL1        0.0739
     13 N         142.1339  141.7320  167.5042 N.3     1  UNL1       -0.2725
     14 C         143.3476  142.2858  166.8185 C.3     1  UNL1        0.0938
     15 C         143.4205  143.1094  165.5669 C.3     1  UNL1        0.1107
     16 C         142.3952  140.9406  168.7513 C.3     1  UNL1        0.0576
     17 C         141.9215  139.6234  169.2904 C.3     1  UNL1        0.0160
     18 C         142.7648  139.8213  170.5150 C.3     1  UNL1        0.0028
     19 C         143.2386  141.1384  169.9759 C.3     1  UNL1        0.0160
     20 O         139.6009  144.9945  159.2667 O.3     1  UNL1       -0.4777
     21 C         140.4625  144.7309  158.0675 C.ar    1  UNL1        0.1385
     22 C         141.2235  145.8550  157.4291 C.ar    1  UNL1        0.0378
     23 C         142.0851  145.5914  156.2300 C.ar    1  UNL1        0.0145
     24 C         142.1859  144.2039  155.6691 C.ar    1  UNL1        0.0579
     25 CL        143.0476  143.9403  154.4700 Cl      1  UNL1       -0.0822
     26 C         141.4250  143.0799  156.3075 C.ar    1  UNL1        0.0145
     27 C         140.5633  143.3435  157.5067 C.ar    1  UNL1        0.0378
@<TRIPOS>BOND
     1     7     8    2
     2     8     1    1
     3     1     2    1
     4     2     3    1
     5     3    20    1
     6    20    21    1
     7    21    22   ar
     8    22    23   ar
     9    23    24   ar
    10    24    25    1
    11    24    26   ar
    12    26    27   ar
    13     3     4    1
    14     4     5    1
    15     8     9   am
    16     9    10    1
    17    10    11    1
    18    11    12    1
    19    12    13    1
    20    13    16    1
    21    16    17    1
    22    17    18    1
    23    18    19    1
    24    13    14    1
    25    14    15    1
    26     5     1    1
    27    15     9    1
    28    27    21   ar
    29    19    16    1
    30     5     6    1
@<TRIPOS>MOLECULE
*****
 27 30 0 0 0
SMALL
GASTEIGER

@<TRIPOS>ATOM
      1 C         138.5745  140.0441  162.0558 C.3     1  UNL1        0.1355
      2 C         138.3429  139.1771  163.2578 C.3     1  UNL1        0.0700
      3 C         138.4411  140.0424  164.4792 C.3     1  UNL1        0.1834
      4 C         138.7333  141.4440  164.0320 C.3     1  UNL1        0.1130
      5 N         138.8157  141.4451  162.5343 N.3     1  UNL1       -0.2882
      6 H         139.7407  141.7573  162.2388 H       1  UNL1        0.1237
      7 O         137.3210  139.7304  159.8019 O.2     1  UNL1       -0.2734
      8 C         138.5662  139.5898  160.6263 C.2     1  UNL1        0.2401
      9 N         139.8030  138.9948  160.0212 N.am    1  UNL1       -0.2770
     10 C         140.9918  138.8999  160.9313 C.3     1  UNL1        0.0949
     11 C         142.3588  138.3602  160.6309 C.3     1  UNL1        0.0388
     12 C         142.8745  137.7821  159.3466 C.3     1  UNL1        0.0739
     13 N         142.1509  137.6009  158.0452 N.3     1  UNL1       -0.2725
     14 C         140.7327  137.9531  157.7069 C.3     1  UNL1        0.0938
     15 C         139.6878  138.5735  158.5864 C.3     1  UNL1        0.1107
     16 C         142.9513  136.9863  156.9355 C.3     1  UNL1        0.0576
     17 C         143.6837  137.5143  155.7376 C.3     1  UNL1        0.0160
     18 C         144.0834  136.1171  155.3661 C.3     1  UNL1        0.0028
     19 C         143.3511  135.5890  156.5640 C.3     1  UNL1        0.0160
     20 O         138.2760  139.5860  165.8986 O.3     1  UNL1       -0.4777
     21 C         139.4194  139.7043  166.8622 C.ar    1  UNL1        0.1385
     22 C         139.1533  139.9916  168.3102 C.ar    1  UNL1        0.0378
     23 C         140.2966  140.1099  169.2738 C.ar    1  UNL1        0.0145
     24 C         141.7062  139.9409  168.7896 C.ar    1  UNL1        0.0579
     25 CL        142.8496  140.0592  169.7532 Cl      1  UNL1       -0.0822
     26 C         141.9723  139.6536  167.3416 C.ar    1  UNL1        0.0145
     27 C         140.8289  139.5353  166.3780 C.ar    1  UNL1        0.0378
@<TRIPOS>BOND
     1     7     8    2
     2     8     1    1
     3     1     2    1
     4     2     3    1
     5     3    20    1
     6    20    21    1
     7    21    22   ar
     8    22    23   ar
     9    23    24   ar
    10    24    25    1
    11    24    26   ar
    12    26    27   ar
    13     3     4    1
    14     4     5    1
    15     8     9   am
    16     9    10    1
    17    10    11    1
    18    11    12    1
    19    12    13    1
    20    13    16    1
    21    16    17    1
    22    17    18    1
    23    18    19    1
    24    13    14    1
    25    14    15    1
    26     5     1    1
    27    15     9    1
    28    27    21   ar
    29    19    16    1
    30     5     6    1
@<TRIPOS>MOLECULE
*****
 27 30 0 0 0
SMALL
GASTEIGER

@<TRIPOS>ATOM
      1 C         141.6727  144.8586  162.4661 C.3     1  UNL1        0.1355
      2 C         141.3404  144.2621  161.1305 C.3     1  UNL1        0.0700
      3 C         140.2396  145.0777  160.5196 C.3     1  UNL1        0.1834
      4 C         139.8917  146.1782  161.4776 C.3     1  UNL1        0.1130
      5 N         140.7774  146.0428  162.6805 N.3     1  UNL1       -0.2882
      6 H         140.2085  145.9000  163.5149 H       1  UNL1        0.1237
      7 O         144.1656  144.6573  163.1697 O.2     1  UNL1       -0.2734
      8 C         142.7171  144.3587  163.4197 C.2     1  UNL1        0.2401
      9 N         142.3129  143.5600  164.6234 N.am    1  UNL1       -0.2770
     10 C         140.8407  143.3183  164.7796 C.3     1  UNL1        0.0949
     11 C         140.1263  142.5655  165.8627 C.3     1  UNL1        0.0388
     12 C         140.7076  141.8687  167.0570 C.3     1  UNL1        0.0739
     13 N         142.1469  141.7524  167.4633 N.3     1  UNL1       -0.2725
     14 C         143.3603  142.3043  166.7755 C.3     1  UNL1        0.0938
     15 C         143.4341  143.1088  165.5116 C.3     1  UNL1        0.1107
     16 C         142.4071  140.9824  168.7239 C.3     1  UNL1        0.0576
     17 C         143.2898  141.1751  169.9214 C.3     1  UNL1        0.0160
     18 C         142.7752  139.8935  170.5069 C.3     1  UNL1        0.0028
     19 C         141.8926  139.7008  169.3095 C.3     1  UNL1        0.0160
     20 O         139.5992  144.8352  159.1850 O.3     1  UNL1       -0.4777
     21 C         139.5554  143.4484  158.6150 C.ar    1  UNL1        0.1385
     22 C         140.6063  143.0042  157.6412 C.ar    1  UNL1        0.0378
     23 C         140.5624  141.6175  157.0712 C.ar    1  UNL1        0.0145
     24 C         139.4677  140.6749  157.4750 C.ar    1  UNL1        0.0579
     25 CL        139.4239  139.2881  156.9050 Cl      1  UNL1       -0.0822
     26 C         138.4168  141.1191  158.4488 C.ar    1  UNL1        0.0145
     27 C         138.4607  142.5059  159.0187 C.ar    1  UNL1        0.0378
@<TRIPOS>BOND
     1     7     8    2
     2     8     1    1
     3     1     2    1
     4     2     3    1
     5     3    20    1
     6    20    21    1
     7    21    22   ar
     8    22    23   ar
     9    23    24   ar
    10    24    25    1
    11    24    26   ar
    12    26    27   ar
    13     3     4    1
    14     4     5    1
    15     8     9   am
    16     9    10    1
    17    10    11    1
    18    11    12    1
    19    12    13    1
    20    13    16    1
    21    16    17    1
    22    17    18    1
    23    18    19    1
    24    13    14    1
    25    14    15    1
    26     5     1    1
    27    15     9    1
    28    27    21   ar
    29    19    16    1
    30     5     6    1
