@<TRIPOS>MOLECULE
*****
 30 34 0 0 0
SMALL
GASTEIGER

@<TRIPOS>ATOM
      1 C         138.5182  141.6357  162.9556 C.ar    1  UNL1        0.1902
      2 N         137.9696  143.0109  162.7155 N.ar    1  UNL1       -0.1269
      3 N         138.0730  143.3014  161.2475 N.ar    1  UNL1       -0.1316
      4 C         138.6855  142.1057  160.5804 C.ar    1  UNL1        0.1615
      5 N         138.9607  141.0762  161.6360 N.ar    1  UNL1       -0.2940
      6 C         139.5786  139.7624  161.2593 C.3     1  UNL1        0.1302
      7 C         139.9214  139.4779  159.8269 C.3     1  UNL1        0.1186
      8 N         139.6462  140.5074  158.7713 N.am    1  UNL1       -0.2688
      9 C         139.9890  140.2231  157.3390 C.2     1  UNL1        0.2493
     10 O         139.7138  141.2526  156.2833 O.2     1  UNL1       -0.2699
     11 C         139.0283  141.8214  159.1480 C.3     1  UNL1        0.1343
     12 C         138.7531  142.8508  158.0924 C.3     1  UNL1        0.0298
     13 C         137.7049  138.2279  166.9060 C.3     1  UNL1        0.0523
     14 C         138.2347  139.3753  166.0982 C.ar    1  UNL1        0.0620
     15 N         137.8318  139.7273  164.6968 N.ar    1  UNL1       -0.2398
     16 C         138.6085  140.9417  164.2823 C.ar    1  UNL1        0.1459
     17 S         139.4915  141.3404  165.4275 S.2     1  UNL1       -0.0682
     18 C         139.2604  140.3723  166.5497 C.ar    1  UNL1        0.0226
     19 C         139.9364  140.3968  167.8886 C.3     1  UNL1        0.0395
     20 C         140.6069  138.9092  156.9623 C.ar    1  UNL1        0.0536
     21 C         142.0614  138.6599  157.2312 C.ar    1  UNL1        0.0045
     22 C         142.6793  137.3460  156.8545 C.ar    1  UNL1        0.0006
     23 C         141.8427  136.2815  156.2089 C.ar    1  UNL1        0.0060
     24 C         140.3882  136.5308  155.9400 C.ar    1  UNL1        0.0006
     25 C         139.7703  137.8446  156.3166 C.ar    1  UNL1        0.0045
     26 C         142.4606  134.9675  155.8322 C.ar    1  UNL1        0.0295
     27 C         142.0675  134.1106  154.6656 C.ar    1  UNL1        0.0070
     28 C         142.9441  132.8933  154.6684 C.ar    1  UNL1        0.0075
     29 C         143.8789  132.9980  155.8368 C.ar    1  UNL1        0.0354
     30 S         143.5801  134.2800  156.5561 S.2     1  UNL1       -0.0864
@<TRIPOS>BOND
     1    13    14    1
     2    14    15   ar
     3    15    16   ar
     4    16     1    1
     5     1     2   ar
     6     2     3   ar
     7     3     4   ar
     8     4     5   ar
     9     5     6    1
    10     6     7    1
    11     7     8    1
    12     8     9   am
    13     9    10    2
    14     9    20    1
    15    20    21   ar
    16    21    22   ar
    17    22    23   ar
    18    23    26    1
    19    26    27   ar
    20    27    28   ar
    21    28    29   ar
    22    29    30   ar
    23    23    24   ar
    24    24    25   ar
    25     8    11    1
    26    11    12    1
    27    16    17   ar
    28    17    18   ar
    29    18    19    1
    30    18    14   ar
    31     5     1   ar
    32    25    20   ar
    33    11     4    1
    34    30    26   ar
@<TRIPOS>MOLECULE
*****
 30 34 0 0 0
SMALL
GASTEIGER

@<TRIPOS>ATOM
      1 C         135.4797  141.7886  155.0748 C.ar    1  UNL1        0.1902
      2 N         135.5140  142.1615  153.6223 N.ar    1  UNL1       -0.1269
      3 N         136.7794  142.9264  153.3699 N.ar    1  UNL1       -0.1316
      4 C         137.5272  143.0262  154.6664 C.ar    1  UNL1        0.1615
      5 N         136.7239  142.3230  155.7201 N.ar    1  UNL1       -0.2940
      6 C         137.2292  142.2602  157.1310 C.3     1  UNL1        0.1302
      7 C         138.5378  142.9006  157.4883 C.3     1  UNL1        0.1186
      8 N         139.3410  143.6038  156.4346 N.am    1  UNL1       -0.2688
      9 C         140.6496  144.2441  156.7918 C.2     1  UNL1        0.2493
     10 O         141.4528  144.9473  155.7381 O.2     1  UNL1       -0.2699
     11 C         138.8357  143.6666  155.0236 C.3     1  UNL1        0.1343
     12 C         139.6390  144.3698  153.9699 C.3     1  UNL1        0.0298
     13 C         132.9615  138.3675  158.2109 C.3     1  UNL1        0.0523
     14 C         133.2347  139.4442  157.2030 C.ar    1  UNL1        0.0620
     15 N         134.5880  139.9404  156.7878 N.ar    1  UNL1       -0.2398
     16 C         134.3922  141.0167  155.7615 C.ar    1  UNL1        0.1459
     17 S         132.9179  141.1858  155.5425 S.2     1  UNL1       -0.0682
     18 C         132.2025  140.2139  156.4334 C.ar    1  UNL1        0.0226
     19 C         130.7160  140.0419  156.5365 C.3     1  UNL1        0.0395
     20 C         141.1548  144.1813  158.2027 C.ar    1  UNL1        0.0536
     21 C         140.6177  145.1283  159.2346 C.ar    1  UNL1        0.0045
     22 C         141.1231  145.0654  160.6456 C.ar    1  UNL1        0.0006
     23 C         142.1654  144.0556  161.0246 C.ar    1  UNL1        0.0060
     24 C         142.7025  143.1086  159.9928 C.ar    1  UNL1        0.0006
     25 C         142.1972  143.1714  158.5818 C.ar    1  UNL1        0.0045
     26 C         142.6707  143.9927  162.4356 C.ar    1  UNL1        0.0295
     27 C         143.8571  144.7310  162.9810 C.ar    1  UNL1        0.0070
     28 C         143.9979  144.3751  164.4313 C.ar    1  UNL1        0.0075
     29 C         142.8986  143.4168  164.7823 C.ar    1  UNL1        0.0354
     30 S         142.0783  143.1804  163.5488 S.2     1  UNL1       -0.0864
@<TRIPOS>BOND
     1    13    14    1
     2    14    15   ar
     3    15    16   ar
     4    16     1    1
     5     1     2   ar
     6     2     3   ar
     7     3     4   ar
     8     4     5   ar
     9     5     6    1
    10     6     7    1
    11     7     8    1
    12     8     9   am
    13     9    10    2
    14     9    20    1
    15    20    21   ar
    16    21    22   ar
    17    22    23   ar
    18    23    26    1
    19    26    27   ar
    20    27    28   ar
    21    28    29   ar
    22    29    30   ar
    23    23    24   ar
    24    24    25   ar
    25     8    11    1
    26    11    12    1
    27    16    17   ar
    28    17    18   ar
    29    18    19    1
    30    18    14   ar
    31     5     1   ar
    32    25    20   ar
    33    11     4    1
    34    30    26   ar
@<TRIPOS>MOLECULE
*****
 30 34 0 0 0
SMALL
GASTEIGER

@<TRIPOS>ATOM
      1 C         143.0584  137.2867  156.1021 C.ar    1  UNL1        0.1902
      2 N         143.2960  138.1207  154.8782 N.ar    1  UNL1       -0.1269
      3 N         143.5115  139.5384  155.3182 N.ar    1  UNL1       -0.1316
      4 C         143.4072  139.5806  156.8140 C.ar    1  UNL1        0.1615
      5 N         143.1272  138.1889  157.2985 N.ar    1  UNL1       -0.2940
      6 C         142.9710  137.9231  158.7664 C.3     1  UNL1        0.1302
      7 C         143.0948  139.0489  159.7499 C.3     1  UNL1        0.1186
      8 N         143.3748  140.4406  159.2654 N.am    1  UNL1       -0.2688
      9 C         143.4987  141.5664  160.2488 C.2     1  UNL1        0.2493
     10 O         143.7787  142.9581  159.7643 O.2     1  UNL1       -0.2699
     11 C         143.5310  140.7064  157.7974 C.3     1  UNL1        0.1343
     12 C         143.8111  142.0981  157.3128 C.3     1  UNL1        0.0298
     13 C         143.3942  132.1459  157.2598 C.3     1  UNL1        0.0523
     14 C         142.9522  133.4466  156.6578 C.ar    1  UNL1        0.0620
     15 N         143.5432  134.7958  156.9420 N.ar    1  UNL1       -0.2398
     16 C         142.7979  135.8097  156.1256 C.ar    1  UNL1        0.1459
     17 S         141.7462  135.0873  155.3368 S.2     1  UNL1       -0.0682
     18 C         141.8416  133.6269  155.6657 C.ar    1  UNL1        0.0226
     19 C         140.9780  132.5378  155.1016 C.3     1  UNL1        0.0395
     20 C         143.3425  141.3006  161.7167 C.ar    1  UNL1        0.0536
     21 C         141.9844  141.3655  162.3504 C.ar    1  UNL1        0.0045
     22 C         141.8283  141.0996  163.8184 C.ar    1  UNL1        0.0006
     23 C         143.0301  140.7688  164.6527 C.ar    1  UNL1        0.0060
     24 C         144.3881  140.7038  164.0190 C.ar    1  UNL1        0.0006
     25 C         144.5443  140.9697  162.5511 C.ar    1  UNL1        0.0045
     26 C         142.8739  140.5029  166.1207 C.ar    1  UNL1        0.0295
     27 C         142.8667  139.1539  166.7765 C.ar    1  UNL1        0.0070
     28 C         142.6859  139.3567  168.2517 C.ar    1  UNL1        0.0075
     29 C         142.5814  140.8310  168.5076 C.ar    1  UNL1        0.0354
     30 S         142.6976  141.5395  167.1905 S.2     1  UNL1       -0.0864
@<TRIPOS>BOND
     1    13    14    1
     2    14    15   ar
     3    15    16   ar
     4    16     1    1
     5     1     2   ar
     6     2     3   ar
     7     3     4   ar
     8     4     5   ar
     9     5     6    1
    10     6     7    1
    11     7     8    1
    12     8     9   am
    13     9    10    2
    14     9    20    1
    15    20    21   ar
    16    21    22   ar
    17    22    23   ar
    18    23    26    1
    19    26    27   ar
    20    27    28   ar
    21    28    29   ar
    22    29    30   ar
    23    23    24   ar
    24    24    25   ar
    25     8    11    1
    26    11    12    1
    27    16    17   ar
    28    17    18   ar
    29    18    19    1
    30    18    14   ar
    31     5     1   ar
    32    25    20   ar
    33    11     4    1
    34    30    26   ar
@<TRIPOS>MOLECULE
*****
 30 34 0 0 0
SMALL
GASTEIGER

@<TRIPOS>ATOM
      1 C         140.4996  141.4646  158.0016 C.ar    1  UNL1        0.1902
      2 N         140.2275  142.6965  157.1902 N.ar    1  UNL1       -0.1269
      3 N         140.2593  143.8770  158.1151 N.ar    1  UNL1       -0.1316
      4 C         140.5511  143.3746  159.4980 C.ar    1  UNL1        0.1615
      5 N         140.6996  141.8837  159.4279 N.ar    1  UNL1       -0.2940
      6 C         140.9978  141.1003  160.6718 C.3     1  UNL1        0.1302
      7 C         141.1474  141.8079  161.9860 C.3     1  UNL1        0.1186
      8 N         140.9989  143.2989  162.0561 N.am    1  UNL1       -0.2688
      9 C         141.1485  144.0065  163.3702 C.2     1  UNL1        0.2493
     10 O         141.0000  145.4975  163.4404 O.2     1  UNL1       -0.2699
     11 C         140.7007  144.0823  160.8121 C.3     1  UNL1        0.1343
     12 C         140.5521  145.5732  160.8823 C.3     1  UNL1        0.0298
     13 C         142.2080  136.5995  156.8642 C.3     1  UNL1        0.0523
     14 C         141.3463  137.8238  156.9557 C.ar    1  UNL1        0.0620
     15 N         141.7149  139.1133  157.6276 N.ar    1  UNL1       -0.2398
     16 C         140.5610  140.0600  157.4785 C.ar    1  UNL1        0.1459
     17 S         139.4792  139.3557  156.7144 S.2     1  UNL1       -0.0682
     18 C         139.9646  137.9737  156.3913 C.ar    1  UNL1        0.0226
     19 C         139.2021  136.9255  155.6364 C.3     1  UNL1        0.0395
     20 C         141.4467  143.2232  164.6141 C.ar    1  UNL1        0.0536
     21 C         142.8676  142.9182  164.9859 C.ar    1  UNL1        0.0045
     22 C         143.1657  142.1348  166.2299 C.ar    1  UNL1        0.0006
     23 C         142.0431  141.6564  167.1020 C.ar    1  UNL1        0.0060
     24 C         140.6222  141.9613  166.7303 C.ar    1  UNL1        0.0006
     25 C         140.3240  142.7447  165.4864 C.ar    1  UNL1        0.0045
     26 C         142.3412  140.8730  168.3460 C.ar    1  UNL1        0.0295
     27 C         142.2243  139.3856  168.5005 C.ar    1  UNL1        0.0070
     28 C         142.6195  139.0328  169.9039 C.ar    1  UNL1        0.0075
     29 C         142.9806  140.3023  170.6168 C.ar    1  UNL1        0.0354
     30 S         142.8086  141.4396  169.6539 S.2     1  UNL1       -0.0864
@<TRIPOS>BOND
     1    13    14    1
     2    14    15   ar
     3    15    16   ar
     4    16     1    1
     5     1     2   ar
     6     2     3   ar
     7     3     4   ar
     8     4     5   ar
     9     5     6    1
    10     6     7    1
    11     7     8    1
    12     8     9   am
    13     9    10    2
    14     9    20    1
    15    20    21   ar
    16    21    22   ar
    17    22    23   ar
    18    23    26    1
    19    26    27   ar
    20    27    28   ar
    21    28    29   ar
    22    29    30   ar
    23    23    24   ar
    24    24    25   ar
    25     8    11    1
    26    11    12    1
    27    16    17   ar
    28    17    18   ar
    29    18    19    1
    30    18    14   ar
    31     5     1   ar
    32    25    20   ar
    33    11     4    1
    34    30    26   ar
@<TRIPOS>MOLECULE
*****
 30 34 0 0 0
SMALL
GASTEIGER

@<TRIPOS>ATOM
      1 C         143.1347  140.3669  161.3683 C.ar    1  UNL1        0.1902
      2 N         143.5435  141.7460  160.9430 N.ar    1  UNL1       -0.1269
      3 N         143.7360  141.7344  159.4555 N.ar    1  UNL1       -0.1316
      4 C         143.4462  140.3481  158.9614 C.ar    1  UNL1        0.1615
      5 N         143.0746  139.5029  160.1435 N.ar    1  UNL1       -0.2940
      6 C         142.7294  138.0558  159.9521 C.3     1  UNL1        0.1302
      7 C         142.7559  137.4538  158.5784 C.3     1  UNL1        0.1186
      8 N         143.1275  138.2990  157.3962 N.am    1  UNL1       -0.2688
      9 C         143.1539  137.6971  156.0225 C.2     1  UNL1        0.2493
     10 O         143.5255  138.5423  154.8404 O.2     1  UNL1       -0.2699
     11 C         143.4726  139.7462  157.5877 C.3     1  UNL1        0.1343
     12 C         143.8442  140.5914  156.4055 C.3     1  UNL1        0.0298
     13 C         140.6177  139.4633  165.9211 C.3     1  UNL1        0.0523
     14 C         141.6812  139.5133  164.8646 C.ar    1  UNL1        0.0620
     15 N         141.5302  140.0903  163.4882 N.ar    1  UNL1       -0.2398
     16 C         142.8382  139.9286  162.7718 C.ar    1  UNL1        0.1459
     17 S         143.7975  139.2517  163.7054 S.2     1  UNL1       -0.0682
     18 C         143.0825  138.9950  164.9988 C.ar    1  UNL1        0.0226
     19 C         143.6661  138.3358  166.2132 C.3     1  UNL1        0.0395
     20 C         142.8088  136.2500  155.8311 C.ar    1  UNL1        0.0536
     21 C         141.4238  135.8589  155.4080 C.ar    1  UNL1        0.0045
     22 C         141.0787  134.4117  155.2165 C.ar    1  UNL1        0.0006
     23 C         142.1185  133.3557  155.4481 C.ar    1  UNL1        0.0060
     24 C         143.5034  133.7468  155.8712 C.ar    1  UNL1        0.0006
     25 C         143.8486  135.1939  156.0627 C.ar    1  UNL1        0.0045
     26 C         141.7734  131.9085  155.2567 C.ar    1  UNL1        0.0295
     27 C         140.5294  131.3770  154.6085 C.ar    1  UNL1        0.0070
     28 C         140.5989  129.8788  154.6310 C.ar    1  UNL1        0.0075
     29 C         141.8858  129.4843  155.2931 C.ar    1  UNL1        0.0354
     30 S         142.6117  130.7388  155.6798 S.2     1  UNL1       -0.0864
@<TRIPOS>BOND
     1    13    14    1
     2    14    15   ar
     3    15    16   ar
     4    16     1    1
     5     1     2   ar
     6     2     3   ar
     7     3     4   ar
     8     4     5   ar
     9     5     6    1
    10     6     7    1
    11     7     8    1
    12     8     9   am
    13     9    10    2
    14     9    20    1
    15    20    21   ar
    16    21    22   ar
    17    22    23   ar
    18    23    26    1
    19    26    27   ar
    20    27    28   ar
    21    28    29   ar
    22    29    30   ar
    23    23    24   ar
    24    24    25   ar
    25     8    11    1
    26    11    12    1
    27    16    17   ar
    28    17    18   ar
    29    18    19    1
    30    18    14   ar
    31     5     1   ar
    32    25    20   ar
    33    11     4    1
    34    30    26   ar
@<TRIPOS>MOLECULE
*****
 30 34 0 0 0
SMALL
GASTEIGER

@<TRIPOS>ATOM
      1 C         142.5716  138.9865  156.7911 C.ar    1  UNL1        0.1902
      2 N         142.5648  139.9423  155.6351 N.ar    1  UNL1       -0.1269
      3 N         142.5950  141.3369  156.1866 N.ar    1  UNL1       -0.1316
      4 C         142.6204  141.2429  157.6835 C.ar    1  UNL1        0.1615
      5 N         142.6060  139.7903  158.0571 N.ar    1  UNL1       -0.2940
      6 C         142.6260  139.3872  159.5017 C.3     1  UNL1        0.1302
      7 C         142.6605  140.4367  160.5729 C.3     1  UNL1        0.1186
      8 N         142.6749  141.8894  160.1993 N.am    1  UNL1       -0.2688
      9 C         142.7094  142.9389  161.2704 C.2     1  UNL1        0.2493
     10 O         142.7239  144.3916  160.8968 O.2     1  UNL1       -0.2699
     11 C         142.6549  142.2925  158.7546 C.3     1  UNL1        0.1343
     12 C         142.6694  143.7451  158.3810 C.3     1  UNL1        0.0298
     13 C         143.5852  133.8824  157.6864 C.3     1  UNL1        0.0523
     14 C         143.0140  135.1434  157.1091 C.ar    1  UNL1        0.0620
     15 N         143.3467  136.5408  157.5414 N.ar    1  UNL1       -0.2398
     16 C         142.5481  137.4896  156.6976 C.ar    1  UNL1        0.1459
     17 S         141.7219  136.6786  155.7437 S.2     1  UNL1       -0.0682
     18 C         142.0098  135.2287  155.9981 C.ar    1  UNL1        0.0226
     19 C         141.4006  134.0677  155.2694 C.3     1  UNL1        0.0395
     20 C         142.7294  142.5358  162.7150 C.ar    1  UNL1        0.0536
     21 C         144.0373  142.3880  163.4344 C.ar    1  UNL1        0.0045
     22 C         144.0573  141.9849  164.8791 C.ar    1  UNL1        0.0006
     23 C         142.7694  141.7295  165.6044 C.ar    1  UNL1        0.0060
     24 C         141.4615  141.8773  164.8850 C.ar    1  UNL1        0.0006
     25 C         141.4415  142.2804  163.4403 C.ar    1  UNL1        0.0045
     26 C         142.7894  141.3263  167.0491 C.ar    1  UNL1        0.0295
     27 C         143.1501  142.2101  168.2062 C.ar    1  UNL1        0.0070
     28 C         143.0358  141.3986  169.4625 C.ar    1  UNL1        0.0075
     29 C         142.6043  140.0132  169.0819 C.ar    1  UNL1        0.0354
     30 S         142.4520  139.9686  167.5902 S.2     1  UNL1       -0.0864
@<TRIPOS>BOND
     1    13    14    1
     2    14    15   ar
     3    15    16   ar
     4    16     1    1
     5     1     2   ar
     6     2     3   ar
     7     3     4   ar
     8     4     5   ar
     9     5     6    1
    10     6     7    1
    11     7     8    1
    12     8     9   am
    13     9    10    2
    14     9    20    1
    15    20    21   ar
    16    21    22   ar
    17    22    23   ar
    18    23    26    1
    19    26    27   ar
    20    27    28   ar
    21    28    29   ar
    22    29    30   ar
    23    23    24   ar
    24    24    25   ar
    25     8    11    1
    26    11    12    1
    27    16    17   ar
    28    17    18   ar
    29    18    19    1
    30    18    14   ar
    31     5     1   ar
    32    25    20   ar
    33    11     4    1
    34    30    26   ar
@<TRIPOS>MOLECULE
*****
 30 34 0 0 0
SMALL
GASTEIGER

@<TRIPOS>ATOM
      1 C         138.3388  141.8281  158.5200 C.ar    1  UNL1        0.1902
      2 N         137.7808  142.8199  157.5428 N.ar    1  UNL1       -0.1269
      3 N         138.1558  142.3709  156.1616 N.ar    1  UNL1       -0.1316
      4 C         138.9454  141.1016  156.2851 C.ar    1  UNL1        0.1615
      5 N         139.0585  140.7661  157.7428 N.ar    1  UNL1       -0.2940
      6 C         139.8023  139.5370  158.1740 C.3     1  UNL1        0.1302
      7 C         140.4331  138.6433  157.1475 C.3     1  UNL1        0.1186
      8 N         140.3200  138.9788  155.6899 N.am    1  UNL1       -0.2688
      9 C         140.9506  138.0851  154.6635 C.2     1  UNL1        0.2493
     10 O         140.8375  138.4206  153.2058 O.2     1  UNL1       -0.2699
     11 C         139.5761  140.2080  155.2587 C.3     1  UNL1        0.1343
     12 C         139.4630  140.5435  153.8011 C.3     1  UNL1        0.0298
     13 C         137.9025  143.6579  163.4538 C.3     1  UNL1        0.0523
     14 C         138.0006  142.7288  162.2804 C.ar    1  UNL1        0.0620
     15 N         138.1385  143.1353  160.8430 N.ar    1  UNL1       -0.2398
     16 C         138.2011  141.8877  160.0125 C.ar    1  UNL1        0.1459
     17 S         138.1019  140.7103  160.9365 S.2     1  UNL1       -0.0682
     18 C         137.9780  141.2301  162.3381 C.ar    1  UNL1        0.0226
     19 C         137.8534  140.3974  163.5795 C.3     1  UNL1        0.0395
     20 C         141.6944  136.8560  155.0946 C.ar    1  UNL1        0.0536
     21 C         140.9805  135.5397  155.1830 C.ar    1  UNL1        0.0045
     22 C         141.7244  134.3106  155.6142 C.ar    1  UNL1        0.0006
     23 C         143.1821  134.3977  155.9570 C.ar    1  UNL1        0.0060
     24 C         143.8959  135.7140  155.8687 C.ar    1  UNL1        0.0006
     25 C         143.1522  136.9431  155.4375 C.ar    1  UNL1        0.0045
     26 C         143.9259  133.1685  156.3883 C.ar    1  UNL1        0.0295
     27 C         144.1929  131.9579  155.5439 C.ar    1  UNL1        0.0070
     28 C         144.9654  130.9754  156.3733 C.ar    1  UNL1        0.0075
     29 C         145.1758  131.5788  157.7304 C.ar    1  UNL1        0.0354
     30 S         144.5334  132.9344  157.7396 S.2     1  UNL1       -0.0864
@<TRIPOS>BOND
     1    13    14    1
     2    14    15   ar
     3    15    16   ar
     4    16     1    1
     5     1     2   ar
     6     2     3   ar
     7     3     4   ar
     8     4     5   ar
     9     5     6    1
    10     6     7    1
    11     7     8    1
    12     8     9   am
    13     9    10    2
    14     9    20    1
    15    20    21   ar
    16    21    22   ar
    17    22    23   ar
    18    23    26    1
    19    26    27   ar
    20    27    28   ar
    21    28    29   ar
    22    29    30   ar
    23    23    24   ar
    24    24    25   ar
    25     8    11    1
    26    11    12    1
    27    16    17   ar
    28    17    18   ar
    29    18    19    1
    30    18    14   ar
    31     5     1   ar
    32    25    20   ar
    33    11     4    1
    34    30    26   ar
@<TRIPOS>MOLECULE
*****
 30 34 0 0 0
SMALL
GASTEIGER

@<TRIPOS>ATOM
      1 C         136.5312  140.6375  155.7196 C.ar    1  UNL1        0.1902
      2 N         137.4475  139.4500  155.7360 N.ar    1  UNL1       -0.1269
      3 N         138.8481  139.9423  155.5222 N.ar    1  UNL1       -0.1316
      4 C         138.7976  141.4341  155.3735 C.ar    1  UNL1        0.1615
      5 N         137.3656  141.8638  155.4955 N.ar    1  UNL1       -0.2940
      6 C         137.0064  143.3160  155.3869 C.3     1  UNL1        0.1302
      7 C         138.0793  144.3387  155.1562 C.3     1  UNL1        0.1186
      8 N         139.5113  143.9091  155.0342 N.am    1  UNL1       -0.2688
      9 C         140.5841  144.9317  154.8035 C.2     1  UNL1        0.2493
     10 O         142.0160  144.5021  154.6815 O.2     1  UNL1       -0.2699
     11 C         139.8704  142.4567  155.1429 C.3     1  UNL1        0.1343
     12 C         141.3023  142.0271  155.0209 C.3     1  UNL1        0.0298
     13 C         131.7148  139.4692  157.5410 C.3     1  UNL1        0.0523
     14 C         132.8281  140.0676  156.7334 C.ar    1  UNL1        0.0620
     15 N         134.2926  139.7983  156.9150 N.ar    1  UNL1       -0.2398
     16 C         135.0420  140.6046  155.8961 C.ar    1  UNL1        0.1459
     17 S         134.0408  141.3723  155.0847 S.2     1  UNL1       -0.0682
     18 C         132.6726  141.0404  155.6022 C.ar    1  UNL1        0.0226
     19 C         131.3763  141.5855  155.0802 C.3     1  UNL1        0.0395
     20 C         140.2249  146.3840  154.6949 C.ar    1  UNL1        0.0536
     21 C         139.4262  147.0423  155.7805 C.ar    1  UNL1        0.0045
     22 C         139.0671  148.4947  155.6718 C.ar    1  UNL1        0.0006
     23 C         139.5066  149.2886  154.4775 C.ar    1  UNL1        0.0060
     24 C         140.3054  148.6303  153.3919 C.ar    1  UNL1        0.0006
     25 C         140.6645  147.1780  153.5005 C.ar    1  UNL1        0.0045
     26 C         139.1475  150.7410  154.3688 C.ar    1  UNL1        0.0295
     27 C         139.1556  151.5596  153.1119 C.ar    1  UNL1        0.0070
     28 C         138.7303  152.9542  153.4642 C.ar    1  UNL1        0.0075
     29 C         138.4594  152.9976  154.9389 C.ar    1  UNL1        0.0354
     30 S         138.7172  151.6297  155.4980 S.2     1  UNL1       -0.0864
@<TRIPOS>BOND
     1    13    14    1
     2    14    15   ar
     3    15    16   ar
     4    16     1    1
     5     1     2   ar
     6     2     3   ar
     7     3     4   ar
     8     4     5   ar
     9     5     6    1
    10     6     7    1
    11     7     8    1
    12     8     9   am
    13     9    10    2
    14     9    20    1
    15    20    21   ar
    16    21    22   ar
    17    22    23   ar
    18    23    26    1
    19    26    27   ar
    20    27    28   ar
    21    28    29   ar
    22    29    30   ar
    23    23    24   ar
    24    24    25   ar
    25     8    11    1
    26    11    12    1
    27    16    17   ar
    28    17    18   ar
    29    18    19    1
    30    18    14   ar
    31     5     1   ar
    32    25    20   ar
    33    11     4    1
    34    30    26   ar
@<TRIPOS>MOLECULE
*****
 30 34 0 0 0
SMALL
GASTEIGER

@<TRIPOS>ATOM
      1 C         138.8552  141.6604  161.4160 C.ar    1  UNL1        0.1902
      2 N         138.2645  142.9322  160.8836 N.ar    1  UNL1       -0.1269
      3 N         138.3932  142.9130  159.3892 N.ar    1  UNL1       -0.1316
      4 C         139.0635  141.6293  158.9981 C.ar    1  UNL1        0.1615
      5 N         139.3491  140.8552  160.2508 N.ar    1  UNL1       -0.2940
      6 C         140.0218  139.5171  160.1686 C.3     1  UNL1        0.1302
      7 C         140.4091  138.9531  158.8336 C.3     1  UNL1        0.1186
      8 N         140.1236  139.7272  157.5810 N.am    1  UNL1       -0.2688
      9 C         140.5108  139.1633  156.2461 C.2     1  UNL1        0.2493
     10 O         140.2253  139.9374  154.9934 O.2     1  UNL1       -0.2699
     11 C         139.4508  141.0654  157.6633 C.3     1  UNL1        0.1343
     12 C         139.1652  141.8395  156.4106 C.3     1  UNL1        0.0298
     13 C         140.1076  141.6052  166.5452 C.3     1  UNL1        0.0523
     14 C         139.5134  141.2381  165.2179 C.ar    1  UNL1        0.0620
     15 N         139.7123  141.9775  163.9280 N.ar    1  UNL1       -0.2398
     16 C         138.9377  141.2635  162.8602 C.ar    1  UNL1        0.1459
     17 S         138.2599  140.0829  163.4901 S.2     1  UNL1       -0.0682
     18 C         138.6157  140.0672  164.9472 C.ar    1  UNL1        0.0226
     19 C         138.1548  139.0578  165.9566 C.3     1  UNL1        0.0395
     20 C         141.1836  137.8252  156.1639 C.ar    1  UNL1        0.0536
     21 C         142.5986  137.6669  156.6358 C.ar    1  UNL1        0.0045
     22 C         143.2714  136.3287  156.5535 C.ar    1  UNL1        0.0006
     23 C         142.5292  135.1489  155.9994 C.ar    1  UNL1        0.0060
     24 C         141.1141  135.3072  155.5276 C.ar    1  UNL1        0.0006
     25 C         140.4414  136.6452  155.6098 C.ar    1  UNL1        0.0045
     26 C         143.2019  133.8107  155.9172 C.ar    1  UNL1        0.0295
     27 C         144.2139  133.2717  156.8843 C.ar    1  UNL1        0.0070
     28 C         144.6182  131.9045  156.4182 C.ar    1  UNL1        0.0075
     29 C         143.8561  131.5985  155.1629 C.ar    1  UNL1        0.0354
     30 S         142.9808  132.7767  154.8533 S.2     1  UNL1       -0.0864
@<TRIPOS>BOND
     1    13    14    1
     2    14    15   ar
     3    15    16   ar
     4    16     1    1
     5     1     2   ar
     6     2     3   ar
     7     3     4   ar
     8     4     5   ar
     9     5     6    1
    10     6     7    1
    11     7     8    1
    12     8     9   am
    13     9    10    2
    14     9    20    1
    15    20    21   ar
    16    21    22   ar
    17    22    23   ar
    18    23    26    1
    19    26    27   ar
    20    27    28   ar
    21    28    29   ar
    22    29    30   ar
    23    23    24   ar
    24    24    25   ar
    25     8    11    1
    26    11    12    1
    27    16    17   ar
    28    17    18   ar
    29    18    19    1
    30    18    14   ar
    31     5     1   ar
    32    25    20   ar
    33    11     4    1
    34    30    26   ar
