@<TRIPOS>MOLECULE
*****
 36 40 0 0 0
SMALL
GASTEIGER

@<TRIPOS>ATOM
      1 C         138.1869  143.3227  155.2093 C.2     1  UNL1        0.3045
      2 O         138.2886  143.9694  153.8598 O.2     1  UNL1       -0.2647
      3 N         139.0174  143.8324  156.3498 N.am    1  UNL1       -0.2720
      4 C         138.9157  143.1856  157.6993 C.3     1  UNL1        0.0976
      5 C         139.7461  143.6953  158.8397 C.3     1  UNL1        0.0651
      6 C         140.6783  144.8517  158.6306 C.3     1  UNL1        0.1693
      7 C         140.7800  145.4984  157.2810 C.3     1  UNL1        0.0651
      8 C         139.9495  144.9887  156.1406 C.3     1  UNL1        0.0976
      9 C         135.2566  140.8645  155.8695 C.ar    1  UNL1        0.2501
     10 N         136.3838  139.9091  155.6110 N.ar    1  UNL1       -0.1068
     11 N         137.6187  140.7137  155.3322 N.ar    1  UNL1       -0.1021
     12 C         137.2547  142.1663  155.4184 C.ar    1  UNL1        0.3042
     13 O         135.7949  142.2595  155.7505 O.2     1  UNL1       -0.4122
     14 C         131.0065  139.7425  156.8329 C.ar    1  UNL1        0.1387
     15 C         132.1414  138.9642  157.4298 C.ar    1  UNL1        0.0371
     16 C         133.5581  139.3382  157.1087 C.ar    1  UNL1        0.0078
     17 C         133.8399  140.4905  156.1907 C.ar    1  UNL1        0.0553
     18 C         132.7050  141.2688  155.5938 C.ar    1  UNL1        0.0078
     19 C         131.2884  140.8948  155.9149 C.ar    1  UNL1        0.0371
     20 C         129.1253  139.3448  158.5801 C.3     1  UNL1        0.2525
     21 O         129.5898  139.3685  157.1541 O.3     1  UNL1       -0.4714
     22 O         141.5087  145.3613  159.7710 O.3     1  UNL1       -0.4791
     23 C         141.1932  144.9399  161.1756 C.ar    1  UNL1        0.1384
     24 C         140.0720  145.5995  161.9225 C.ar    1  UNL1        0.0366
     25 C         139.7565  145.1781  163.3271 C.ar    1  UNL1        0.0002
     26 C         140.5622  144.0971  163.9847 C.ar    1  UNL1       -0.0059
     27 C         141.6834  143.4376  163.2378 C.ar    1  UNL1        0.0002
     28 C         141.9989  143.8590  161.8332 C.ar    1  UNL1        0.0366
     29 C         140.2466  143.6757  165.3894 C.3     1  UNL1        0.0992
     30 N         139.6843  142.3107  165.6545 N.3     1  UNL1       -0.2665
     31 C         138.6835  141.7153  164.7091 C.3     1  UNL1        0.0899
     32 C         138.1211  140.3502  164.9742 C.3     1  UNL1        0.0897
     33 N         138.5595  139.5806  166.1847 N.3     1  UNL1       -0.2691
     34 C         137.9971  138.2154  166.4499 C.3     1  UNL1        0.0897
     35 C         139.5603  140.1760  167.1302 C.3     1  UNL1        0.0897
     36 C         140.1227  141.5411  166.8651 C.3     1  UNL1        0.0899
@<TRIPOS>BOND
     1    20    21    1
     2    21    14    1
     3    14    15   ar
     4    15    16   ar
     5    16    17   ar
     6    17     9    1
     7     9    10   ar
     8    10    11   ar
     9    11    12   ar
    10    12     1    1
    11     1     2    2
    12     1     3   am
    13     3     4    1
    14     4     5    1
    15     5     6    1
    16     6    22    1
    17    22    23    1
    18    23    24   ar
    19    24    25   ar
    20    25    26   ar
    21    26    29    1
    22    29    30    1
    23    30    31    1
    24    31    32    1
    25    32    33    1
    26    33    34    1
    27    33    35    1
    28    35    36    1
    29    26    27   ar
    30    27    28   ar
    31     6     7    1
    32     7     8    1
    33    12    13   ar
    34    17    18   ar
    35    18    19   ar
    36    19    14   ar
    37    13     9   ar
    38     8     3    1
    39    28    23   ar
    40    36    30    1
@<TRIPOS>MOLECULE
*****
 36 40 0 0 0
SMALL
GASTEIGER

@<TRIPOS>ATOM
      1 C         138.6796  139.0568  161.3225 C.2     1  UNL1        0.3045
      2 O         137.3594  139.5177  160.7797 O.2     1  UNL1       -0.2647
      3 N         139.7995  138.7183  160.3837 N.am    1  UNL1       -0.2720
      4 C         141.1197  138.2574  160.9264 C.3     1  UNL1        0.0976
      5 C         142.2395  137.9188  159.9877 C.3     1  UNL1        0.0651
      6 C         142.0391  138.0411  158.5062 C.3     1  UNL1        0.1693
      7 C         140.7189  138.5020  157.9635 C.3     1  UNL1        0.0651
      8 C         139.5990  138.8406  158.9022 C.3     1  UNL1        0.0976
      9 C         139.3164  139.4841  165.1274 C.ar    1  UNL1        0.2501
     10 N         139.0600  138.0087  165.0403 N.ar    1  UNL1       -0.1068
     11 N         138.7903  137.6691  163.6043 N.ar    1  UNL1       -0.1021
     12 C         138.8799  138.9345  162.8040 C.ar    1  UNL1        0.3042
     13 O         139.2051  140.0563  163.7453 O.2     1  UNL1       -0.4122
     14 C         140.2547  141.7889  168.8767 C.ar    1  UNL1        0.1387
     15 C         139.5587  140.4632  168.9657 C.ar    1  UNL1        0.0371
     16 C         139.2459  139.6949  167.7159 C.ar    1  UNL1        0.0078
     17 C         139.6291  140.2524  166.3771 C.ar    1  UNL1        0.0553
     18 C         140.3251  141.5781  166.2882 C.ar    1  UNL1        0.0078
     19 C         140.6379  142.3464  167.5379 C.ar    1  UNL1        0.0371
     20 C         141.4892  141.9727  171.1553 C.3     1  UNL1        0.2525
     21 O         140.5674  142.5572  170.1265 O.3     1  UNL1       -0.4714
     22 O         143.1590  137.7026  157.5674 O.3     1  UNL1       -0.4791
     23 C         143.0846  136.4619  156.7277 C.ar    1  UNL1        0.1384
     24 C         143.2499  135.1140  157.3647 C.ar    1  UNL1        0.0366
     25 C         143.1754  133.8734  156.5250 C.ar    1  UNL1        0.0002
     26 C         142.9356  133.9806  155.0481 C.ar    1  UNL1       -0.0059
     27 C         142.7703  135.3285  154.4111 C.ar    1  UNL1        0.0002
     28 C         142.8448  136.5692  155.2508 C.ar    1  UNL1        0.0366
     29 C         142.8612  132.7399  154.2083 C.3     1  UNL1        0.0992
     30 N         143.0683  131.3944  154.8381 N.3     1  UNL1       -0.2665
     31 C         144.4557  130.9194  155.1533 C.3     1  UNL1        0.0899
     32 C         144.6629  129.5739  155.7830 C.3     1  UNL1        0.0897
     33 N         143.4826  128.7034  156.0976 N.3     1  UNL1       -0.2691
     34 C         143.6897  127.3578  156.7274 C.3     1  UNL1        0.0897
     35 C         142.0951  129.1784  155.7825 C.3     1  UNL1        0.0897
     36 C         141.8880  130.5239  155.1527 C.3     1  UNL1        0.0899
@<TRIPOS>BOND
     1    20    21    1
     2    21    14    1
     3    14    15   ar
     4    15    16   ar
     5    16    17   ar
     6    17     9    1
     7     9    10   ar
     8    10    11   ar
     9    11    12   ar
    10    12     1    1
    11     1     2    2
    12     1     3   am
    13     3     4    1
    14     4     5    1
    15     5     6    1
    16     6    22    1
    17    22    23    1
    18    23    24   ar
    19    24    25   ar
    20    25    26   ar
    21    26    29    1
    22    29    30    1
    23    30    31    1
    24    31    32    1
    25    32    33    1
    26    33    34    1
    27    33    35    1
    28    35    36    1
    29    26    27   ar
    30    27    28   ar
    31     6     7    1
    32     7     8    1
    33    12    13   ar
    34    17    18   ar
    35    18    19   ar
    36    19    14   ar
    37    13     9   ar
    38     8     3    1
    39    28    23   ar
    40    36    30    1
@<TRIPOS>MOLECULE
*****
 36 40 0 0 0
SMALL
GASTEIGER

@<TRIPOS>ATOM
      1 C         142.8776  138.7247  157.4690 C.2     1  UNL1        0.3045
      2 O         144.0031  139.6894  157.2400 O.2     1  UNL1       -0.2647
      3 N         141.7236  139.1128  158.3452 N.am    1  UNL1       -0.2720
      4 C         140.5981  138.1481  158.5742 C.3     1  UNL1        0.0976
      5 C         139.4442  138.5362  159.4503 C.3     1  UNL1        0.0651
      6 C         139.4158  139.8890  160.0976 C.3     1  UNL1        0.1693
      7 C         140.5413  140.8538  159.8686 C.3     1  UNL1        0.0651
      8 C         141.6953  140.4656  158.9924 C.3     1  UNL1        0.0976
      9 C         143.1268  134.9784  156.4847 C.ar    1  UNL1        0.2501
     10 N         142.7728  135.6014  155.1669 N.ar    1  UNL1       -0.1068
     11 N         142.6364  137.0806  155.3752 N.ar    1  UNL1       -0.1021
     12 C         142.9060  137.3718  156.8217 C.ar    1  UNL1        0.3042
     13 O         143.2091  136.0726  157.5074 O.2     1  UNL1       -0.4122
     14 C         143.8200  130.5963  157.2376 C.ar    1  UNL1        0.1387
     15 C         142.6630  131.0381  156.3913 C.ar    1  UNL1        0.0371
     16 C         142.4319  132.4988  156.1403 C.ar    1  UNL1        0.0078
     17 C         143.3578  133.5177  156.7356 C.ar    1  UNL1        0.0553
     18 C         144.5148  133.0759  157.5819 C.ar    1  UNL1        0.0078
     19 C         144.7459  131.6152  157.8329 C.ar    1  UNL1        0.0371
     20 C         144.1410  128.6213  158.8947 C.3     1  UNL1        0.2525
     21 O         144.0510  129.1356  157.4886 O.3     1  UNL1       -0.4714
     22 O         138.2618  140.2772  160.9738 O.3     1  UNL1       -0.4791
     23 C         138.3295  140.0377  162.4530 C.ar    1  UNL1        0.1384
     24 C         138.6612  138.6720  162.9772 C.ar    1  UNL1        0.0366
     25 C         138.7289  138.4325  164.4564 C.ar    1  UNL1        0.0002
     26 C         138.4650  139.5587  165.4114 C.ar    1  UNL1       -0.0059
     27 C         138.1333  140.9245  164.8872 C.ar    1  UNL1        0.0002
     28 C         138.0655  141.1639  163.4080 C.ar    1  UNL1        0.0366
     29 C         138.5327  139.3192  166.8907 C.3     1  UNL1        0.0992
     30 N         139.7063  139.8206  167.6787 N.3     1  UNL1       -0.2665
     31 C         139.5139  140.3021  169.0863 C.3     1  UNL1        0.0899
     32 C         140.6875  140.8036  169.8744 C.3     1  UNL1        0.0897
     33 N         142.0535  140.8236  169.2550 N.3     1  UNL1       -0.2691
     34 C         143.2272  141.3251  170.0431 C.3     1  UNL1        0.0897
     35 C         142.2459  140.3421  167.8474 C.3     1  UNL1        0.0897
     36 C         141.0723  139.8406  167.0593 C.3     1  UNL1        0.0899
@<TRIPOS>BOND
     1    20    21    1
     2    21    14    1
     3    14    15   ar
     4    15    16   ar
     5    16    17   ar
     6    17     9    1
     7     9    10   ar
     8    10    11   ar
     9    11    12   ar
    10    12     1    1
    11     1     2    2
    12     1     3   am
    13     3     4    1
    14     4     5    1
    15     5     6    1
    16     6    22    1
    17    22    23    1
    18    23    24   ar
    19    24    25   ar
    20    25    26   ar
    21    26    29    1
    22    29    30    1
    23    30    31    1
    24    31    32    1
    25    32    33    1
    26    33    34    1
    27    33    35    1
    28    35    36    1
    29    26    27   ar
    30    27    28   ar
    31     6     7    1
    32     7     8    1
    33    12    13   ar
    34    17    18   ar
    35    18    19   ar
    36    19    14   ar
    37    13     9   ar
    38     8     3    1
    39    28    23   ar
    40    36    30    1
@<TRIPOS>MOLECULE
*****
 36 40 0 0 0
SMALL
GASTEIGER

@<TRIPOS>ATOM
      1 C         138.5914  139.8944  159.7595 C.2     1  UNL1        0.3045
      2 O         137.2809  139.9165  159.0300 O.2     1  UNL1       -0.2647
      3 N         139.7842  139.2297  159.1388 N.am    1  UNL1       -0.2720
      4 C         141.0947  139.2076  159.8683 C.3     1  UNL1        0.0976
      5 C         142.2875  138.5430  159.2477 C.3     1  UNL1        0.0651
      6 C         142.1699  137.9003  157.8974 C.3     1  UNL1        0.1693
      7 C         140.8594  137.9223  157.1679 C.3     1  UNL1        0.0651
      8 C         139.6666  138.5871  157.7886 C.3     1  UNL1        0.0976
      9 C         138.9308  140.8485  163.5065 C.ar    1  UNL1        0.2501
     10 N         138.8491  142.2036  162.8686 N.ar    1  UNL1       -0.1068
     11 N         138.7120  142.0112  161.3874 N.ar    1  UNL1       -0.1021
     12 C         138.7090  140.5371  161.1098 C.ar    1  UNL1        0.3042
     13 O         138.8442  139.8185  162.4195 O.2     1  UNL1       -0.4122
     14 C         139.3602  140.0186  167.9085 C.ar    1  UNL1        0.1387
     15 C         138.4843  139.1431  167.0622 C.ar    1  UNL1        0.0371
     16 C         138.3412  139.4197  165.5948 C.ar    1  UNL1        0.0078
     17 C         139.0739  140.5718  164.9739 C.ar    1  UNL1        0.0553
     18 C         139.9498  141.4473  165.8202 C.ar    1  UNL1        0.0078
     19 C         140.0929  141.1707  167.2875 C.ar    1  UNL1        0.0371
     20 C         140.8633  139.7356  170.0086 C.3     1  UNL1        0.2525
     21 O         139.5033  139.7420  169.3758 O.3     1  UNL1       -0.4714
     22 O         143.3627  137.2355  157.2767 O.3     1  UNL1       -0.4791
     23 C         143.1792  136.0320  156.4006 C.ar    1  UNL1        0.1384
     24 C         143.3275  134.6551  156.9770 C.ar    1  UNL1        0.0366
     25 C         143.1440  133.4515  156.1009 C.ar    1  UNL1        0.0002
     26 C         142.8122  133.6248  154.6483 C.ar    1  UNL1       -0.0059
     27 C         142.6639  135.0016  154.0719 C.ar    1  UNL1        0.0002
     28 C         142.8474  136.2052  154.9480 C.ar    1  UNL1        0.0366
     29 C         142.6287  132.4211  153.7721 C.3     1  UNL1        0.0992
     30 N         141.9102  131.2136  154.2973 N.3     1  UNL1       -0.2665
     31 C         142.6914  130.0389  154.8070 C.3     1  UNL1        0.0899
     32 C         141.9729  128.8314  155.3321 C.3     1  UNL1        0.0897
     33 N         140.4734  128.7986  155.3476 N.3     1  UNL1       -0.2691
     34 C         139.7549  127.5911  155.8727 C.3     1  UNL1        0.0897
     35 C         139.6923  129.9734  154.8378 C.3     1  UNL1        0.0897
     36 C         140.4107  131.1809  154.3127 C.3     1  UNL1        0.0899
@<TRIPOS>BOND
     1    20    21    1
     2    21    14    1
     3    14    15   ar
     4    15    16   ar
     5    16    17   ar
     6    17     9    1
     7     9    10   ar
     8    10    11   ar
     9    11    12   ar
    10    12     1    1
    11     1     2    2
    12     1     3   am
    13     3     4    1
    14     4     5    1
    15     5     6    1
    16     6    22    1
    17    22    23    1
    18    23    24   ar
    19    24    25   ar
    20    25    26   ar
    21    26    29    1
    22    29    30    1
    23    30    31    1
    24    31    32    1
    25    32    33    1
    26    33    34    1
    27    33    35    1
    28    35    36    1
    29    26    27   ar
    30    27    28   ar
    31     6     7    1
    32     7     8    1
    33    12    13   ar
    34    17    18   ar
    35    18    19   ar
    36    19    14   ar
    37    13     9   ar
    38     8     3    1
    39    28    23   ar
    40    36    30    1
@<TRIPOS>MOLECULE
*****
 36 40 0 0 0
SMALL
GASTEIGER

@<TRIPOS>ATOM
      1 C         139.0901  139.7096  159.6064 C.2     1  UNL1        0.3045
      2 O         137.7491  139.8547  158.9503 O.2     1  UNL1       -0.2647
      3 N         140.1879  138.9601  158.9115 N.am    1  UNL1       -0.2720
      4 C         141.5290  138.8150  159.5677 C.3     1  UNL1        0.0976
      5 C         142.6268  138.0655  158.8728 C.3     1  UNL1        0.0651
      6 C         142.3836  137.4612  157.5216 C.3     1  UNL1        0.1693
      7 C         141.0426  137.6063  156.8654 C.3     1  UNL1        0.0651
      8 C         139.9448  138.3558  157.5604 C.3     1  UNL1        0.0976
      9 C         139.4603  140.6151  163.3626 C.ar    1  UNL1        0.2501
     10 N         139.9543  141.8728  162.7111 N.ar    1  UNL1       -0.1068
     11 N         139.8757  141.6867  161.2248 N.ar    1  UNL1       -0.1021
     12 C         139.3332  140.3140  160.9576 C.ar    1  UNL1        0.3042
     13 O         139.0765  139.6517  162.2788 O.2     1  UNL1       -0.4122
     14 C         139.1794  139.8642  167.7906 C.ar    1  UNL1        0.1387
     15 C         138.2925  139.1106  166.8443 C.ar    1  UNL1        0.0371
     16 C         138.3862  139.3609  165.3683 C.ar    1  UNL1        0.0078
     17 C         139.3667  140.3648  164.8386 C.ar    1  UNL1        0.0553
     18 C         140.2535  141.1184  165.7848 C.ar    1  UNL1        0.0078
     19 C         140.1599  140.8681  167.2608 C.ar    1  UNL1        0.0371
     20 C         139.7580  140.5468  170.2296 C.3     1  UNL1        0.2525
     21 O         139.0857  139.6139  169.2666 O.3     1  UNL1       -0.4714
     22 O         143.4815  136.7117  156.8267 O.3     1  UNL1       -0.4791
     23 C         143.2334  135.3250  156.3113 C.ar    1  UNL1        0.1384
     24 C         142.9917  135.1008  154.8480 C.ar    1  UNL1        0.0366
     25 C         142.7436  133.7141  154.3327 C.ar    1  UNL1        0.0002
     26 C         142.7372  132.5517  155.2807 C.ar    1  UNL1       -0.0059
     27 C         142.9789  132.7759  156.7440 C.ar    1  UNL1        0.0002
     28 C         143.2270  134.1625  157.2593 C.ar    1  UNL1        0.0366
     29 C         142.4890  131.1649  154.7653 C.3     1  UNL1        0.0992
     30 N         143.2953  130.0142  155.2903 N.3     1  UNL1       -0.2665
     31 C         144.5361  129.5772  154.5695 C.3     1  UNL1        0.0899
     32 C         145.3424  128.4265  155.0944 C.3     1  UNL1        0.0897
     33 N         144.9080  127.7127  156.3401 N.3     1  UNL1       -0.2691
     34 C         145.7144  126.5619  156.8651 C.3     1  UNL1        0.0897
     35 C         143.6673  128.1497  157.0609 C.3     1  UNL1        0.0897
     36 C         142.8609  129.3005  156.5360 C.3     1  UNL1        0.0899
@<TRIPOS>BOND
     1    20    21    1
     2    21    14    1
     3    14    15   ar
     4    15    16   ar
     5    16    17   ar
     6    17     9    1
     7     9    10   ar
     8    10    11   ar
     9    11    12   ar
    10    12     1    1
    11     1     2    2
    12     1     3   am
    13     3     4    1
    14     4     5    1
    15     5     6    1
    16     6    22    1
    17    22    23    1
    18    23    24   ar
    19    24    25   ar
    20    25    26   ar
    21    26    29    1
    22    29    30    1
    23    30    31    1
    24    31    32    1
    25    32    33    1
    26    33    34    1
    27    33    35    1
    28    35    36    1
    29    26    27   ar
    30    27    28   ar
    31     6     7    1
    32     7     8    1
    33    12    13   ar
    34    17    18   ar
    35    18    19   ar
    36    19    14   ar
    37    13     9   ar
    38     8     3    1
    39    28    23   ar
    40    36    30    1
@<TRIPOS>MOLECULE
*****
 36 40 0 0 0
SMALL
GASTEIGER

@<TRIPOS>ATOM
      1 C         139.2809  143.6630  160.8687 C.2     1  UNL1        0.3045
      2 O         139.8951  144.9763  160.4840 O.2     1  UNL1       -0.2647
      3 N         139.0064  142.6272  159.8190 N.am    1  UNL1       -0.2720
      4 C         138.3922  141.3139  160.2037 C.3     1  UNL1        0.0976
      5 C         138.1178  140.2782  159.1541 C.3     1  UNL1        0.0651
      6 C         138.4576  140.5557  157.7197 C.3     1  UNL1        0.1693
      7 C         139.0719  141.8689  157.3350 C.3     1  UNL1        0.0651
      8 C         139.3463  142.9047  158.3847 C.3     1  UNL1        0.0976
      9 C         139.0471  142.5561  164.5816 C.ar    1  UNL1        0.2501
     10 N         137.7893  143.3609  164.4393 N.ar    1  UNL1       -0.1068
     11 N         137.7237  143.8735  163.0312 N.ar    1  UNL1       -0.1021
     12 C         138.9410  143.3855  162.3031 C.ar    1  UNL1        0.3042
     13 O         139.7589  142.5713  163.2614 O.2     1  UNL1       -0.4122
     14 C         140.4403  140.4635  168.3139 C.ar    1  UNL1        0.1387
     15 C         140.8922  141.8646  168.0265 C.ar    1  UNL1        0.0371
     16 C         140.4278  142.5622  166.7824 C.ar    1  UNL1        0.0078
     17 C         139.5115  141.8586  165.8257 C.ar    1  UNL1        0.0553
     18 C         139.0596  140.4575  166.1131 C.ar    1  UNL1        0.0078
     19 C         139.5240  139.7599  167.3572 C.ar    1  UNL1        0.0371
     20 C         142.3447  139.3720  169.7039 C.3     1  UNL1        0.2525
     21 O         140.9047  139.7660  169.5580 O.3     1  UNL1       -0.4714
     22 O         138.1832  139.5199  156.6700 O.3     1  UNL1       -0.4791
     23 C         139.2810  138.6052  156.2138 C.ar    1  UNL1        0.1384
     24 C         139.0845  137.7442  155.0014 C.ar    1  UNL1        0.0366
     25 C         140.1824  136.8295  154.5452 C.ar    1  UNL1        0.0002
     26 C         141.4767  136.7759  155.3014 C.ar    1  UNL1       -0.0059
     27 C         141.6732  137.6369  156.5138 C.ar    1  UNL1        0.0002
     28 C         140.5754  138.5516  156.9700 C.ar    1  UNL1        0.0366
     29 C         142.5746  135.8612  154.8451 C.3     1  UNL1        0.0992
     30 N         142.7668  134.5303  155.5098 N.3     1  UNL1       -0.2665
     31 C         143.7264  134.3954  156.6547 C.3     1  UNL1        0.0899
     32 C         143.9187  133.0646  157.3194 C.3     1  UNL1        0.0897
     33 N         143.1513  131.8686  156.8391 N.3     1  UNL1       -0.2691
     34 C         143.3435  130.5376  157.5038 C.3     1  UNL1        0.0897
     35 C         142.1916  132.0035  155.6942 C.3     1  UNL1        0.0897
     36 C         141.9993  133.3344  155.0295 C.3     1  UNL1        0.0899
@<TRIPOS>BOND
     1    20    21    1
     2    21    14    1
     3    14    15   ar
     4    15    16   ar
     5    16    17   ar
     6    17     9    1
     7     9    10   ar
     8    10    11   ar
     9    11    12   ar
    10    12     1    1
    11     1     2    2
    12     1     3   am
    13     3     4    1
    14     4     5    1
    15     5     6    1
    16     6    22    1
    17    22    23    1
    18    23    24   ar
    19    24    25   ar
    20    25    26   ar
    21    26    29    1
    22    29    30    1
    23    30    31    1
    24    31    32    1
    25    32    33    1
    26    33    34    1
    27    33    35    1
    28    35    36    1
    29    26    27   ar
    30    27    28   ar
    31     6     7    1
    32     7     8    1
    33    12    13   ar
    34    17    18   ar
    35    18    19   ar
    36    19    14   ar
    37    13     9   ar
    38     8     3    1
    39    28    23   ar
    40    36    30    1
@<TRIPOS>MOLECULE
*****
 36 40 0 0 0
SMALL
GASTEIGER

@<TRIPOS>ATOM
      1 C         139.4614  142.0341  160.1645 C.2     1  UNL1        0.3045
      2 O         139.0883  143.3434  159.5347 O.2     1  UNL1       -0.2647
      3 N         140.4477  141.1298  159.4866 N.am    1  UNL1       -0.2720
      4 C         140.8208  139.8206  160.1163 C.3     1  UNL1        0.0976
      5 C         141.8070  138.9163  159.4385 C.3     1  UNL1        0.0651
      6 C         142.4202  139.3213  158.1308 C.3     1  UNL1        0.1693
      7 C         142.0471  140.6306  157.5011 C.3     1  UNL1        0.0651
      8 C         141.0608  141.5349  158.1790 C.3     1  UNL1        0.0976
      9 C         138.5835  141.0075  163.8033 C.ar    1  UNL1        0.2501
     10 N         137.2258  141.0045  163.1657 N.ar    1  UNL1       -0.1068
     11 N         137.3894  141.3887  161.7250 N.ar    1  UNL1       -0.1021
     12 C         138.8482  141.6292  161.4722 C.ar    1  UNL1        0.3042
     13 O         139.5862  141.3936  162.7566 O.2     1  UNL1       -0.4122
     14 C         139.4896  140.0299  168.1014 C.ar    1  UNL1        0.1387
     15 C         140.1414  141.2121  167.4476 C.ar    1  UNL1        0.0371
     16 C         139.8394  141.5380  166.0149 C.ar    1  UNL1        0.0078
     17 C         138.8855  140.6816  165.2360 C.ar    1  UNL1        0.0553
     18 C         138.2337  139.4994  165.8897 C.ar    1  UNL1        0.0078
     19 C         138.5357  139.1735  167.3224 C.ar    1  UNL1        0.0371
     20 C         140.2233  140.7893  170.4751 C.3     1  UNL1        0.2525
     21 O         139.7916  139.7040  169.5340 O.3     1  UNL1       -0.4714
     22 O         143.4064  138.4170  157.4529 O.3     1  UNL1       -0.4791
     23 C         142.9223  137.3253  156.5453 C.ar    1  UNL1        0.1384
     24 C         143.9096  136.4423  155.8414 C.ar    1  UNL1        0.0366
     25 C         143.4255  135.3505  154.9338 C.ar    1  UNL1        0.0002
     26 C         141.9540  135.1418  154.7302 C.ar    1  UNL1       -0.0059
     27 C         140.9668  136.0249  155.4341 C.ar    1  UNL1        0.0002
     28 C         141.4509  137.1166  156.3417 C.ar    1  UNL1        0.0366
     29 C         141.4699  134.0500  153.8225 C.3     1  UNL1        0.0992
     30 N         141.8847  132.6300  154.0699 N.3     1  UNL1       -0.2665
     31 C         142.3819  131.7853  152.9344 C.3     1  UNL1        0.0899
     32 C         142.7967  130.3651  153.1817 C.3     1  UNL1        0.0897
     33 N         142.7143  129.7897  154.5645 N.3     1  UNL1       -0.2691
     34 C         143.1291  128.3695  154.8119 C.3     1  UNL1        0.0897
     35 C         142.2171  130.6344  155.7000 C.3     1  UNL1        0.0897
     36 C         141.8023  132.0545  155.4527 C.3     1  UNL1        0.0899
@<TRIPOS>BOND
     1    20    21    1
     2    21    14    1
     3    14    15   ar
     4    15    16   ar
     5    16    17   ar
     6    17     9    1
     7     9    10   ar
     8    10    11   ar
     9    11    12   ar
    10    12     1    1
    11     1     2    2
    12     1     3   am
    13     3     4    1
    14     4     5    1
    15     5     6    1
    16     6    22    1
    17    22    23    1
    18    23    24   ar
    19    24    25   ar
    20    25    26   ar
    21    26    29    1
    22    29    30    1
    23    30    31    1
    24    31    32    1
    25    32    33    1
    26    33    34    1
    27    33    35    1
    28    35    36    1
    29    26    27   ar
    30    27    28   ar
    31     6     7    1
    32     7     8    1
    33    12    13   ar
    34    17    18   ar
    35    18    19   ar
    36    19    14   ar
    37    13     9   ar
    38     8     3    1
    39    28    23   ar
    40    36    30    1
@<TRIPOS>MOLECULE
*****
 36 40 0 0 0
SMALL
GASTEIGER

@<TRIPOS>ATOM
      1 C         142.2372  144.3053  160.4615 C.2     1  UNL1        0.3045
      2 O         141.3780  145.4691  160.0648 O.2     1  UNL1       -0.2647
      3 N         142.7476  143.3590  159.4156 N.am    1  UNL1       -0.2720
      4 C         143.6069  142.1952  159.8123 C.3     1  UNL1        0.0976
      5 C         144.1173  141.2489  158.7665 C.3     1  UNL1        0.0651
      6 C         143.7684  141.4662  157.3239 C.3     1  UNL1        0.1693
      7 C         142.9092  142.6300  156.9272 C.3     1  UNL1        0.0651
      8 C         142.3988  143.5764  157.9731 C.3     1  UNL1        0.0976
      9 C         142.5392  143.2879  164.1950 C.ar    1  UNL1        0.2501
     10 N         143.7065  144.2192  164.0531 N.ar    1  UNL1       -0.1068
     11 N         143.7354  144.7137  162.6372 N.ar    1  UNL1       -0.1021
     12 C         142.5861  144.0880  161.9041 C.ar    1  UNL1        0.3042
     13 O         141.8467  143.2068  162.8669 O.2     1  UNL1       -0.4122
     14 C         141.3274  141.1182  167.9466 C.ar    1  UNL1        0.1387
     15 C         140.4174  142.1507  167.3502 C.ar    1  UNL1        0.0371
     16 C         140.8214  142.8740  166.0997 C.ar    1  UNL1        0.0078
     17 C         142.1353  142.5646  165.4455 C.ar    1  UNL1        0.0553
     18 C         143.0452  141.5321  166.0419 C.ar    1  UNL1        0.0078
     19 C         142.6413  140.8088  167.2924 C.ar    1  UNL1        0.0371
     20 C         141.8799  139.4464  169.8570 C.3     1  UNL1        0.2525
     21 O         140.9235  140.3949  169.1971 O.3     1  UNL1       -0.4714
     22 O         144.2789  140.5198  156.2781 O.3     1  UNL1       -0.4791
     23 C         143.6832  139.1490  156.1521 C.ar    1  UNL1        0.1384
     24 C         142.3982  138.8223  156.8536 C.ar    1  UNL1        0.0366
     25 C         141.8025  137.4515  156.7277 C.ar    1  UNL1        0.0002
     26 C         142.4918  136.4073  155.9003 C.ar    1  UNL1       -0.0059
     27 C         143.7768  136.7339  155.1989 C.ar    1  UNL1        0.0002
     28 C         144.3725  138.1048  155.3248 C.ar    1  UNL1        0.0366
     29 C         141.8960  135.0364  155.7744 C.3     1  UNL1        0.0992
     30 N         142.6101  133.8520  156.3552 N.3     1  UNL1       -0.2665
     31 C         142.1999  132.4632  155.9642 C.3     1  UNL1        0.0899
     32 C         142.9139  131.2787  156.5450 C.3     1  UNL1        0.0897
     33 N         144.0381  131.4832  157.5167 N.3     1  UNL1       -0.2691
     34 C         144.7522  130.2987  158.0975 C.3     1  UNL1        0.0897
     35 C         144.4484  132.8720  157.9076 C.3     1  UNL1        0.0897
     36 C         143.7343  134.0565  157.3269 C.3     1  UNL1        0.0899
@<TRIPOS>BOND
     1    20    21    1
     2    21    14    1
     3    14    15   ar
     4    15    16   ar
     5    16    17   ar
     6    17     9    1
     7     9    10   ar
     8    10    11   ar
     9    11    12   ar
    10    12     1    1
    11     1     2    2
    12     1     3   am
    13     3     4    1
    14     4     5    1
    15     5     6    1
    16     6    22    1
    17    22    23    1
    18    23    24   ar
    19    24    25   ar
    20    25    26   ar
    21    26    29    1
    22    29    30    1
    23    30    31    1
    24    31    32    1
    25    32    33    1
    26    33    34    1
    27    33    35    1
    28    35    36    1
    29    26    27   ar
    30    27    28   ar
    31     6     7    1
    32     7     8    1
    33    12    13   ar
    34    17    18   ar
    35    18    19   ar
    36    19    14   ar
    37    13     9   ar
    38     8     3    1
    39    28    23   ar
    40    36    30    1
@<TRIPOS>MOLECULE
*****
 36 40 0 0 0
SMALL
GASTEIGER

@<TRIPOS>ATOM
      1 C         140.4319  138.9212  156.3581 C.2     1  UNL1        0.3045
      2 O         140.1105  139.6286  155.0750 O.2     1  UNL1       -0.2647
      3 N         139.6880  139.2695  157.6132 N.am    1  UNL1       -0.2720
      4 C         140.0094  138.5622  158.8963 C.3     1  UNL1        0.0976
      5 C         139.2655  138.9105  160.1514 C.3     1  UNL1        0.0651
      6 C         138.2002  139.9661  160.1234 C.3     1  UNL1        0.1693
      7 C         137.8788  140.6734  158.8403 C.3     1  UNL1        0.0651
      8 C         138.6227  140.3251  157.5852 C.3     1  UNL1        0.0976
      9 C         142.6088  135.7095  156.4659 C.ar    1  UNL1        0.2501
     10 N         143.6643  136.7727  156.3923 N.ar    1  UNL1       -0.1068
     11 N         142.9773  138.1053  156.3429 N.ar    1  UNL1       -0.1021
     12 C         141.4972  137.8656  156.3860 C.ar    1  UNL1        0.3042
     13 O         141.2695  136.3850  156.4621 O.2     1  UNL1       -0.4122
     14 C         143.3330  131.2726  156.6637 C.ar    1  UNL1        0.1387
     15 C         142.2173  131.8135  155.8197 C.ar    1  UNL1        0.0371
     16 C         141.9758  133.2925  155.7537 C.ar    1  UNL1        0.0078
     17 C         142.8502  134.2305  156.5319 C.ar    1  UNL1        0.0553
     18 C         143.9659  133.6896  157.3759 C.ar    1  UNL1        0.0078
     19 C         144.2073  132.2106  157.4418 C.ar    1  UNL1        0.0371
     20 C         143.8906  129.1431  158.0437 C.3     1  UNL1        0.2525
     21 O         143.5744  129.7936  156.7297 O.3     1  UNL1       -0.4714
     22 O         137.4563  140.3144  161.3785 O.3     1  UNL1       -0.4791
     23 C         138.1599  141.0302  162.4932 C.ar    1  UNL1        0.1384
     24 C         139.1655  142.0986  162.1816 C.ar    1  UNL1        0.0366
     25 C         139.8690  142.8145  163.2963 C.ar    1  UNL1        0.0002
     26 C         139.5670  142.4618  164.7226 C.ar    1  UNL1       -0.0059
     27 C         138.5614  141.3933  165.0343 C.ar    1  UNL1        0.0002
     28 C         137.8579  140.6775  163.9196 C.ar    1  UNL1        0.0366
     29 C         140.2707  143.1777  165.8374 C.3     1  UNL1        0.0992
     30 N         140.8843  142.3963  166.9611 N.3     1  UNL1       -0.2665
     31 C         141.7347  141.1969  166.6638 C.3     1  UNL1        0.0899
     32 C         142.3485  140.4155  167.7875 C.3     1  UNL1        0.0897
     33 N         142.1118  140.8335  169.2085 N.3     1  UNL1       -0.2691
     34 C         142.7256  140.0521  170.3323 C.3     1  UNL1        0.0897
     35 C         141.2614  142.0329  169.5058 C.3     1  UNL1        0.0897
     36 C         140.6477  142.8143  168.3821 C.3     1  UNL1        0.0899
@<TRIPOS>BOND
     1    20    21    1
     2    21    14    1
     3    14    15   ar
     4    15    16   ar
     5    16    17   ar
     6    17     9    1
     7     9    10   ar
     8    10    11   ar
     9    11    12   ar
    10    12     1    1
    11     1     2    2
    12     1     3   am
    13     3     4    1
    14     4     5    1
    15     5     6    1
    16     6    22    1
    17    22    23    1
    18    23    24   ar
    19    24    25   ar
    20    25    26   ar
    21    26    29    1
    22    29    30    1
    23    30    31    1
    24    31    32    1
    25    32    33    1
    26    33    34    1
    27    33    35    1
    28    35    36    1
    29    26    27   ar
    30    27    28   ar
    31     6     7    1
    32     7     8    1
    33    12    13   ar
    34    17    18   ar
    35    18    19   ar
    36    19    14   ar
    37    13     9   ar
    38     8     3    1
    39    28    23   ar
    40    36    30    1
