@<TRIPOS>MOLECULE
*****
 26 28 0 0 0
SMALL
GASTEIGER

@<TRIPOS>ATOM
      1 C         141.2663  144.9284  160.0540 C.ar    1  UNL1        0.1098
      2 C         142.2619  143.9046  160.5130 C.ar    1  UNL1        0.0891
      3 N         142.1908  143.3629  161.9100 N.ar    1  UNL1       -0.2900
      4 C         141.1241  143.8450  162.8480 C.ar    1  UNL1        0.1507
      5 N         141.0531  143.3034  164.2449 N.ar    1  UNL1       -0.2263
      6 C         139.9864  143.7855  165.1829 C.ar    1  UNL1        0.1005
      7 C         138.9908  144.8093  164.7239 C.ar    1  UNL1        0.0209
      8 C         139.0619  145.3509  163.3270 C.ar    1  UNL1        0.0078
      9 C         140.1285  144.8688  162.3890 C.ar    1  UNL1        0.0736
     10 C         140.1996  145.4105  160.9920 C.ar    1  UNL1        0.2043
     11 O         139.2041  146.4343  160.5330 O.2     1  UNL1       -0.2863
     12 C         143.1864  142.3392  162.3690 C.ar    1  UNL1        0.0659
     13 C         144.4315  142.7720  163.0846 C.ar    1  UNL1        0.0176
     14 C         145.4271  141.7482  163.5436 C.ar    1  UNL1        0.0020
     15 C         145.1776  140.2916  163.2869 C.ar    1  UNL1        0.0068
     16 C         143.9324  139.8587  162.5712 C.ar    1  UNL1        0.0360
     17 BR        143.6828  138.4021  162.3146 Br      1  UNL1       -0.0489
     18 C         142.9368  140.8825  162.1122 C.ar    1  UNL1        0.0243
     19 N         140.1643  145.3209  157.7342 N.am    1  UNL1       -0.3007
     20 C         141.3374  145.4701  158.6570 C.2     1  UNL1        0.2504
     21 O         142.5815  146.1609  158.1829 O.2     1  UNL1       -0.2700
     22 H         139.3477  144.8675  158.0454 H       1  UNL1        0.1497
     23 C         140.2354  145.8626  156.3372 C.3     1  UNL1        0.0896
     24 C         138.8601  147.9357  155.5883 C.3     1  UNL1        0.0017
     25 C         139.0117  146.4473  155.6964 C.3     1  UNL1        0.0196
     26 C         137.9395  145.5436  155.1636 C.3     1  UNL1        0.0017
@<TRIPOS>BOND
     1    24    25    1
     2    25    26    1
     3    25    23    1
     4    23    19    1
     5    19    20   am
     6    20    21    2
     7    20     1    1
     8     1     2   ar
     9     2     3   ar
    10     3    12    1
    11    12    13   ar
    12    13    14   ar
    13    14    15   ar
    14    15    16   ar
    15    16    17    1
    16    16    18   ar
    17     3     4   ar
    18     4     5   ar
    19     5     6   ar
    20     6     7   ar
    21     7     8   ar
    22     8     9   ar
    23     9    10   ar
    24    10    11    2
    25    10     1   ar
    26    18    12   ar
    27     9     4   ar
    28    19    22    1
@<TRIPOS>MOLECULE
*****
 26 28 0 0 0
SMALL
GASTEIGER

@<TRIPOS>ATOM
      1 C         141.0146  143.2856  162.0983 C.ar    1  UNL1        0.1098
      2 C         140.2191  142.4923  163.0921 C.ar    1  UNL1        0.0891
      3 N         140.9013  141.4756  163.9586 N.ar    1  UNL1       -0.2900
      4 C         142.3792  141.2522  163.8313 C.ar    1  UNL1        0.1507
      5 N         143.0614  140.2355  164.6978 N.ar    1  UNL1       -0.2263
      6 C         144.5392  140.0122  164.5705 C.ar    1  UNL1        0.1005
      7 C         145.3347  140.8055  163.5766 C.ar    1  UNL1        0.0209
      8 C         144.6525  141.8222  162.7101 C.ar    1  UNL1        0.0078
      9 C         143.1747  142.0456  162.8375 C.ar    1  UNL1        0.0736
     10 C         142.4924  143.0623  161.9709 C.ar    1  UNL1        0.2043
     11 O         143.2880  143.8556  160.9771 O.2     1  UNL1       -0.2863
     12 C         140.1058  140.6823  164.9525 C.ar    1  UNL1        0.0659
     13 C         139.1385  139.6390  164.4773 C.ar    1  UNL1        0.0176
     14 C         138.3429  138.8456  165.4711 C.ar    1  UNL1        0.0020
     15 C         138.5147  139.0956  166.9401 C.ar    1  UNL1        0.0068
     16 C         139.4820  140.1389  167.4154 C.ar    1  UNL1        0.0360
     17 BR        139.6538  140.3889  168.8843 Br      1  UNL1       -0.0489
     18 C         140.2776  140.9323  166.4215 C.ar    1  UNL1        0.0243
     19 N         140.7895  144.5111  159.8185 N.am    1  UNL1       -0.3007
     20 C         140.3323  144.3024  161.2318 C.2     1  UNL1        0.2504
     21 O         139.1929  145.1103  161.7786 O.2     1  UNL1       -0.2700
     22 H         141.5373  143.9809  159.4596 H       1  UNL1        0.1497
     23 C         140.1072  145.5278  158.9520 C.3     1  UNL1        0.0896
     24 C         142.2091  145.8156  157.4522 C.3     1  UNL1        0.0017
     25 C         140.7276  145.9413  157.6504 C.3     1  UNL1        0.0196
     26 C         139.8665  146.4806  156.5469 C.3     1  UNL1        0.0017
@<TRIPOS>BOND
     1    24    25    1
     2    25    26    1
     3    25    23    1
     4    23    19    1
     5    19    20   am
     6    20    21    2
     7    20     1    1
     8     1     2   ar
     9     2     3   ar
    10     3    12    1
    11    12    13   ar
    12    13    14   ar
    13    14    15   ar
    14    15    16   ar
    15    16    17    1
    16    16    18   ar
    17     3     4   ar
    18     4     5   ar
    19     5     6   ar
    20     6     7   ar
    21     7     8   ar
    22     8     9   ar
    23     9    10   ar
    24    10    11    2
    25    10     1   ar
    26    18    12   ar
    27     9     4   ar
    28    19    22    1
@<TRIPOS>MOLECULE
*****
 26 28 0 0 0
SMALL
GASTEIGER

@<TRIPOS>ATOM
      1 C         139.7629  143.0728  162.7058 C.ar    1  UNL1        0.1098
      2 C         140.4193  143.2471  164.0432 C.ar    1  UNL1        0.0891
      3 N         140.5493  142.0772  164.9730 N.ar    1  UNL1       -0.2900
      4 C         140.0230  140.7330  164.5653 C.ar    1  UNL1        0.1507
      5 N         140.1531  139.5631  165.4950 N.ar    1  UNL1       -0.2263
      6 C         139.6268  138.2190  165.0873 C.ar    1  UNL1        0.1005
      7 C         138.9704  138.0447  163.7498 C.ar    1  UNL1        0.0209
      8 C         138.8404  139.2146  162.8200 C.ar    1  UNL1        0.0078
      9 C         139.3667  140.5587  163.2278 C.ar    1  UNL1        0.0736
     10 C         139.2367  141.7287  162.2980 C.ar    1  UNL1        0.2043
     11 O         138.5803  141.5544  160.9605 O.2     1  UNL1       -0.2863
     12 C         141.2057  142.2515  166.3105 C.ar    1  UNL1        0.0659
     13 C         142.6917  142.0957  166.4427 C.ar    1  UNL1        0.0176
     14 C         143.3480  142.2700  167.7801 C.ar    1  UNL1        0.0020
     15 C         142.5184  142.6000  168.9854 C.ar    1  UNL1        0.0068
     16 C         141.0323  142.7558  168.8532 C.ar    1  UNL1        0.0360
     17 BR        140.2026  143.0858  170.0585 Br      1  UNL1       -0.0489
     18 C         140.3759  142.5815  167.5158 C.ar    1  UNL1        0.0243
     19 N         140.3760  144.2515  160.4730 N.am    1  UNL1       -0.3007
     20 C         139.6329  144.2428  161.7760 C.2     1  UNL1        0.2504
     21 O         138.7598  145.4039  162.1492 O.2     1  UNL1       -0.2700
     22 H         140.9491  143.4893  160.2281 H       1  UNL1        0.1497
     23 C         140.2460  145.4213  159.5433 C.3     1  UNL1        0.0896
     24 C         139.7817  144.5417  157.1432 C.3     1  UNL1        0.0017
     25 C         140.6567  145.2870  158.1069 C.3     1  UNL1        0.0196
     26 C         141.9425  145.8980  157.6342 C.3     1  UNL1        0.0017
@<TRIPOS>BOND
     1    24    25    1
     2    25    26    1
     3    25    23    1
     4    23    19    1
     5    19    20   am
     6    20    21    2
     7    20     1    1
     8     1     2   ar
     9     2     3   ar
    10     3    12    1
    11    12    13   ar
    12    13    14   ar
    13    14    15   ar
    14    15    16   ar
    15    16    17    1
    16    16    18   ar
    17     3     4   ar
    18     4     5   ar
    19     5     6   ar
    20     6     7   ar
    21     7     8   ar
    22     8     9   ar
    23     9    10   ar
    24    10    11    2
    25    10     1   ar
    26    18    12   ar
    27     9     4   ar
    28    19    22    1
@<TRIPOS>MOLECULE
*****
 26 28 0 0 0
SMALL
GASTEIGER

@<TRIPOS>ATOM
      1 C         140.5453  142.9406  161.4640 C.ar    1  UNL1        0.1098
      2 C         140.0686  141.6708  162.1047 C.ar    1  UNL1        0.0891
      3 N         140.7291  141.1671  163.3537 N.ar    1  UNL1       -0.2900
      4 C         141.8664  141.9331  163.9619 C.ar    1  UNL1        0.1507
      5 N         142.5269  141.4294  165.2109 N.ar    1  UNL1       -0.2263
      6 C         143.6641  142.1954  165.8191 C.ar    1  UNL1        0.1005
      7 C         144.1408  143.4651  165.1783 C.ar    1  UNL1        0.0209
      8 C         143.4803  143.9688  163.9294 C.ar    1  UNL1        0.0078
      9 C         142.3431  143.2028  163.3212 C.ar    1  UNL1        0.0736
     10 C         141.6825  143.7065  162.0721 C.ar    1  UNL1        0.2043
     11 O         142.1593  144.9762  161.4314 O.2     1  UNL1       -0.2863
     12 C         140.2524  139.8974  163.9944 C.ar    1  UNL1        0.0659
     13 C         140.7547  138.5733  163.5001 C.ar    1  UNL1        0.0176
     14 C         140.2780  137.3036  164.1409 C.ar    1  UNL1        0.0020
     15 C         139.2989  137.3580  165.2760 C.ar    1  UNL1        0.0068
     16 C         138.7966  138.6821  165.7704 C.ar    1  UNL1        0.0360
     17 BR        137.8175  138.7365  166.9055 Br      1  UNL1       -0.0489
     18 C         139.2733  139.9519  165.1296 C.ar    1  UNL1        0.0243
     19 N         140.6970  144.1479  159.1684 N.am    1  UNL1       -0.3007
     20 C         139.8847  143.4443  160.2149 C.2     1  UNL1        0.2504
     21 O         138.4120  143.2443  160.0125 O.2     1  UNL1       -0.2700
     22 H         141.6636  144.2791  159.3013 H       1  UNL1        0.1497
     23 C         140.0365  144.6516  157.9195 C.3     1  UNL1        0.0896
     24 C         139.8210  146.6355  156.2559 C.3     1  UNL1        0.0017
     25 C         140.6681  145.7612  157.1322 C.3     1  UNL1        0.0196
     26 C         142.1468  145.9965  157.2213 C.3     1  UNL1        0.0017
@<TRIPOS>BOND
     1    24    25    1
     2    25    26    1
     3    25    23    1
     4    23    19    1
     5    19    20   am
     6    20    21    2
     7    20     1    1
     8     1     2   ar
     9     2     3   ar
    10     3    12    1
    11    12    13   ar
    12    13    14   ar
    13    14    15   ar
    14    15    16   ar
    15    16    17    1
    16    16    18   ar
    17     3     4   ar
    18     4     5   ar
    19     5     6   ar
    20     6     7   ar
    21     7     8   ar
    22     8     9   ar
    23     9    10   ar
    24    10    11    2
    25    10     1   ar
    26    18    12   ar
    27     9     4   ar
    28    19    22    1
@<TRIPOS>MOLECULE
*****
 26 28 0 0 0
SMALL
GASTEIGER

@<TRIPOS>ATOM
      1 C         139.2796  139.9249  165.8736 C.ar    1  UNL1        0.1098
      2 C         139.7025  141.2500  165.3121 C.ar    1  UNL1        0.0891
      3 N         139.8099  141.4357  163.8276 N.ar    1  UNL1       -0.2900
      4 C         139.4943  140.2963  162.9044 C.ar    1  UNL1        0.1507
      5 N         139.6016  140.4821  161.4198 N.ar    1  UNL1       -0.2263
      6 C         139.2861  139.3427  160.4967 C.ar    1  UNL1        0.1005
      7 C         138.8631  138.0176  161.0581 C.ar    1  UNL1        0.0209
      8 C         138.7558  137.8319  162.5427 C.ar    1  UNL1        0.0078
      9 C         139.0714  138.9712  163.4658 C.ar    1  UNL1        0.0736
     10 C         138.9640  138.7855  164.9504 C.ar    1  UNL1        0.2043
     11 O         138.5411  137.4604  165.5119 O.2     1  UNL1       -0.2863
     12 C         140.2328  142.7609  163.2662 C.ar    1  UNL1        0.0659
     13 C         139.2464  143.6076  162.5179 C.ar    1  UNL1        0.0176
     14 C         139.6694  144.9327  161.9565 C.ar    1  UNL1        0.0020
     15 C         141.0787  145.4111  162.1433 C.ar    1  UNL1        0.0068
     16 C         142.0652  144.5643  162.8916 C.ar    1  UNL1        0.0360
     17 BR        143.4745  145.0427  163.0785 Br      1  UNL1       -0.0489
     18 C         141.6422  143.2392  163.4531 C.ar    1  UNL1        0.0243
     19 N         140.2052  140.3388  168.2656 N.am    1  UNL1       -0.3007
     20 C         139.1723  139.7392  167.3582 C.2     1  UNL1        0.2504
     21 O         138.0321  138.9538  167.9353 O.2     1  UNL1       -0.2700
     22 H         140.9536  140.8543  167.8869 H       1  UNL1        0.1497
     23 C         140.0979  140.1532  169.7502 C.3     1  UNL1        0.0896
     24 C         139.7074  142.5240  170.7385 C.3     1  UNL1        0.0017
     25 C         140.5107  141.2587  170.6761 C.3     1  UNL1        0.0196
     26 C         141.7267  141.0991  171.5396 C.3     1  UNL1        0.0017
@<TRIPOS>BOND
     1    24    25    1
     2    25    26    1
     3    25    23    1
     4    23    19    1
     5    19    20   am
     6    20    21    2
     7    20     1    1
     8     1     2   ar
     9     2     3   ar
    10     3    12    1
    11    12    13   ar
    12    13    14   ar
    13    14    15   ar
    14    15    16   ar
    15    16    17    1
    16    16    18   ar
    17     3     4   ar
    18     4     5   ar
    19     5     6   ar
    20     6     7   ar
    21     7     8   ar
    22     8     9   ar
    23     9    10   ar
    24    10    11    2
    25    10     1   ar
    26    18    12   ar
    27     9     4   ar
    28    19    22    1
@<TRIPOS>MOLECULE
*****
 26 28 0 0 0
SMALL
GASTEIGER

@<TRIPOS>ATOM
      1 C         140.8003  139.9396  162.7896 C.ar    1  UNL1        0.1098
      2 C         140.9976  139.8718  164.2750 C.ar    1  UNL1        0.0891
      3 N         140.5366  141.0033  165.1452 N.ar    1  UNL1       -0.2900
      4 C         139.8784  142.2026  164.5300 C.ar    1  UNL1        0.1507
      5 N         139.4174  143.3340  165.4001 N.ar    1  UNL1       -0.2263
      6 C         138.7592  144.5332  164.7849 C.ar    1  UNL1        0.1005
      7 C         138.5619  144.6010  163.2995 C.ar    1  UNL1        0.0209
      8 C         139.0229  143.4695  162.4293 C.ar    1  UNL1        0.0078
      9 C         139.6811  142.2703  163.0445 C.ar    1  UNL1        0.0736
     10 C         140.1421  141.1388  162.1743 C.ar    1  UNL1        0.2043
     11 O         139.9448  141.2065  160.6889 O.2     1  UNL1       -0.2863
     12 C         140.7339  140.9355  166.6306 C.ar    1  UNL1        0.0659
     13 C         139.7394  140.2091  167.4869 C.ar    1  UNL1        0.0176
     14 C         139.9366  140.1414  168.9723 C.ar    1  UNL1        0.0020
     15 C         141.1284  140.8000  169.6015 C.ar    1  UNL1        0.0068
     16 C         142.1230  141.5264  168.7452 C.ar    1  UNL1        0.0360
     17 BR        143.3148  142.1850  169.3743 Br      1  UNL1       -0.0489
     18 C         141.9258  141.5941  167.2597 C.ar    1  UNL1        0.0243
     19 N         142.2073  139.0713  160.7854 N.am    1  UNL1       -0.3007
     20 C         141.2614  138.8080  161.9194 C.2     1  UNL1        0.2504
     21 O         140.7764  137.4133  162.1832 O.2     1  UNL1       -0.2700
     22 H         142.5256  139.9867  160.6123 H       1  UNL1        0.1497
     23 C         142.6683  137.9398  159.9152 C.3     1  UNL1        0.0896
     24 C         142.8666  139.4956  157.8440 C.3     1  UNL1        0.0017
     25 C         142.7423  138.1196  158.4279 C.3     1  UNL1        0.0196
     26 C         142.6920  136.9233  157.5244 C.3     1  UNL1        0.0017
@<TRIPOS>BOND
     1    24    25    1
     2    25    26    1
     3    25    23    1
     4    23    19    1
     5    19    20   am
     6    20    21    2
     7    20     1    1
     8     1     2   ar
     9     2     3   ar
    10     3    12    1
    11    12    13   ar
    12    13    14   ar
    13    14    15   ar
    14    15    16   ar
    15    16    17    1
    16    16    18   ar
    17     3     4   ar
    18     4     5   ar
    19     5     6   ar
    20     6     7   ar
    21     7     8   ar
    22     8     9   ar
    23     9    10   ar
    24    10    11    2
    25    10     1   ar
    26    18    12   ar
    27     9     4   ar
    28    19    22    1
@<TRIPOS>MOLECULE
*****
 26 28 0 0 0
SMALL
GASTEIGER

@<TRIPOS>ATOM
      1 C         141.5844  138.2850  158.6439 C.ar    1  UNL1        0.1098
      2 C         142.5205  138.5423  159.7874 C.ar    1  UNL1        0.0891
      3 N         142.0350  139.2726  161.0043 N.ar    1  UNL1       -0.2900
      4 C         140.6134  139.7457  161.0778 C.ar    1  UNL1        0.1507
      5 N         140.1279  140.4760  162.2947 N.ar    1  UNL1       -0.2263
      6 C         138.7064  140.9489  162.3681 C.ar    1  UNL1        0.1005
      7 C         137.7703  140.6916  161.2246 C.ar    1  UNL1        0.0209
      8 C         138.2558  139.9613  160.0077 C.ar    1  UNL1        0.0078
      9 C         139.6773  139.4883  159.9343 C.ar    1  UNL1        0.0736
     10 C         140.1629  138.7580  158.7173 C.ar    1  UNL1        0.2043
     11 O         139.2268  138.5007  157.5738 O.2     1  UNL1       -0.2863
     12 C         142.9711  139.5299  162.1478 C.ar    1  UNL1        0.0659
     13 C         144.1212  140.4775  161.9769 C.ar    1  UNL1        0.0176
     14 C         145.0573  140.7348  163.1204 C.ar    1  UNL1        0.0020
     15 C         144.8432  140.0445  164.4347 C.ar    1  UNL1        0.0068
     16 C         143.6931  139.0969  164.6057 C.ar    1  UNL1        0.0360
     17 BR        143.4791  138.4066  165.9201 Br      1  UNL1       -0.0489
     18 C         142.7570  138.8396  163.4622 C.ar    1  UNL1        0.0243
     19 N         141.1698  136.5784  156.7292 N.am    1  UNL1       -0.3007
     20 C         142.0700  137.5547  157.4269 C.2     1  UNL1        0.2504
     21 O         143.4555  137.8006  156.9077 O.2     1  UNL1       -0.2700
     22 H         140.2604  136.4170  157.0700 H       1  UNL1        0.1497
     23 C         141.6553  135.8481  155.5123 C.3     1  UNL1        0.0896
     24 C         143.6957  134.3372  156.0635 C.3     1  UNL1        0.0017
     25 C         142.2616  134.4829  155.6491 C.3     1  UNL1        0.0196
     26 C         141.4336  133.2634  155.3713 C.3     1  UNL1        0.0017
@<TRIPOS>BOND
     1    24    25    1
     2    25    26    1
     3    25    23    1
     4    23    19    1
     5    19    20   am
     6    20    21    2
     7    20     1    1
     8     1     2   ar
     9     2     3   ar
    10     3    12    1
    11    12    13   ar
    12    13    14   ar
    13    14    15   ar
    14    15    16   ar
    15    16    17    1
    16    16    18   ar
    17     3     4   ar
    18     4     5   ar
    19     5     6   ar
    20     6     7   ar
    21     7     8   ar
    22     8     9   ar
    23     9    10   ar
    24    10    11    2
    25    10     1   ar
    26    18    12   ar
    27     9     4   ar
    28    19    22    1
@<TRIPOS>MOLECULE
*****
 26 28 0 0 0
SMALL
GASTEIGER

@<TRIPOS>ATOM
      1 C         140.6707  141.3735  165.4036 C.ar    1  UNL1        0.1098
      2 C         140.8058  142.4796  164.3996 C.ar    1  UNL1        0.0891
      3 N         140.1821  142.3411  163.0425 N.ar    1  UNL1       -0.2900
      4 C         139.4232  141.0963  162.6894 C.ar    1  UNL1        0.1507
      5 N         138.7995  140.9577  161.3323 N.ar    1  UNL1       -0.2263
      6 C         138.0406  139.7130  160.9793 C.ar    1  UNL1        0.1005
      7 C         137.9055  138.6068  161.9833 C.ar    1  UNL1        0.0209
      8 C         138.5292  138.7454  163.3404 C.ar    1  UNL1        0.0078
      9 C         139.2880  139.9901  163.6934 C.ar    1  UNL1        0.0736
     10 C         139.9118  140.1287  165.0506 C.ar    1  UNL1        0.2043
     11 O         139.7766  139.0226  166.0547 O.2     1  UNL1       -0.2863
     12 C         140.3173  143.4472  162.0385 C.ar    1  UNL1        0.0659
     13 C         139.6390  144.7636  162.2769 C.ar    1  UNL1        0.0176
     14 C         139.7741  145.8698  161.2729 C.ar    1  UNL1        0.0020
     15 C         140.5877  145.6596  160.0303 C.ar    1  UNL1        0.0068
     16 C         141.2661  144.3431  159.7918 C.ar    1  UNL1        0.0360
     17 BR        142.0796  144.1329  158.5493 Br      1  UNL1       -0.0489
     18 C         141.1309  143.2370  160.7959 C.ar    1  UNL1        0.0243
     19 N         140.4590  141.3262  167.9927 N.am    1  UNL1       -0.3007
     20 C         141.2944  141.5121  166.7608 C.2     1  UNL1        0.2504
     21 O         142.7535  141.8366  166.8860 O.2     1  UNL1       -0.2700
     22 H         139.5013  141.1132  167.9105 H       1  UNL1        0.1497
     23 C         141.0827  141.4648  169.3498 C.3     1  UNL1        0.0896
     24 C         142.7780  143.0700  170.4896 C.3     1  UNL1        0.0017
     25 C         141.4295  142.8242  169.8806 C.3     1  UNL1        0.0196
     26 C         140.4277  143.9379  169.8023 C.3     1  UNL1        0.0017
@<TRIPOS>BOND
     1    24    25    1
     2    25    26    1
     3    25    23    1
     4    23    19    1
     5    19    20   am
     6    20    21    2
     7    20     1    1
     8     1     2   ar
     9     2     3   ar
    10     3    12    1
    11    12    13   ar
    12    13    14   ar
    13    14    15   ar
    14    15    16   ar
    15    16    17    1
    16    16    18   ar
    17     3     4   ar
    18     4     5   ar
    19     5     6   ar
    20     6     7   ar
    21     7     8   ar
    22     8     9   ar
    23     9    10   ar
    24    10    11    2
    25    10     1   ar
    26    18    12   ar
    27     9     4   ar
    28    19    22    1
@<TRIPOS>MOLECULE
*****
 26 28 0 0 0
SMALL
GASTEIGER

@<TRIPOS>ATOM
      1 C         138.1779  141.2392  158.5131 C.ar    1  UNL1        0.1098
      2 C         138.2516  142.2050  159.6585 C.ar    1  UNL1        0.0891
      3 N         139.1688  141.9305  160.8132 N.ar    1  UNL1       -0.2900
      4 C         140.0124  140.6901  160.8225 C.ar    1  UNL1        0.1507
      5 N         140.9296  140.4156  161.9772 N.ar    1  UNL1       -0.2263
      6 C         141.7731  139.1753  161.9865 C.ar    1  UNL1        0.1005
      7 C         141.6994  138.2096  160.8412 C.ar    1  UNL1        0.0209
      8 C         140.7822  138.4841  159.6865 C.ar    1  UNL1        0.0078
      9 C         139.9387  139.7244  159.6772 C.ar    1  UNL1        0.0736
     10 C         139.0214  139.9989  158.5225 C.ar    1  UNL1        0.2043
     11 O         138.9477  139.0332  157.3771 O.2     1  UNL1       -0.2863
     12 C         139.2425  142.8963  161.9585 C.ar    1  UNL1        0.0659
     13 C         138.0285  143.1550  162.8007 C.ar    1  UNL1        0.0176
     14 C         138.1022  144.1208  163.9460 C.ar    1  UNL1        0.0020
     15 C         139.3899  144.8278  164.2493 C.ar    1  UNL1        0.0068
     16 C         140.6040  144.5691  163.4071 C.ar    1  UNL1        0.0360
     17 BR        141.8917  145.2761  163.7103 Br      1  UNL1       -0.0489
     18 C         140.5303  143.6033  162.2617 C.ar    1  UNL1        0.0243
     19 N         136.2396  140.4927  156.9525 N.am    1  UNL1       -0.3007
     20 C         137.2606  141.5138  157.3584 C.2     1  UNL1        0.2504
     21 O         137.3645  142.8094  156.6097 O.2     1  UNL1       -0.2700
     22 H         136.1715  139.6423  157.4439 H       1  UNL1        0.1497
     23 C         135.3224  140.7672  155.7978 C.3     1  UNL1        0.0896
     24 C         133.5030  139.0214  156.4240 C.3     1  UNL1        0.0017
     25 C         133.8792  140.3654  155.8744 C.3     1  UNL1        0.0196
     26 C         132.8122  141.3076  155.4013 C.3     1  UNL1        0.0017
@<TRIPOS>BOND
     1    24    25    1
     2    25    26    1
     3    25    23    1
     4    23    19    1
     5    19    20   am
     6    20    21    2
     7    20     1    1
     8     1     2   ar
     9     2     3   ar
    10     3    12    1
    11    12    13   ar
    12    13    14   ar
    13    14    15   ar
    14    15    16   ar
    15    16    17    1
    16    16    18   ar
    17     3     4   ar
    18     4     5   ar
    19     5     6   ar
    20     6     7   ar
    21     7     8   ar
    22     8     9   ar
    23     9    10   ar
    24    10    11    2
    25    10     1   ar
    26    18    12   ar
    27     9     4   ar
    28    19    22    1
