@<TRIPOS>MOLECULE
*****
 41 43 0 0 0
SMALL
GASTEIGER

@<TRIPOS>ATOM
      1 C         139.4481  139.6895  160.4949 C.ar    1  UNL1        0.0597
      2 C         139.3171  138.8031  161.6979 C.ar    1  UNL1        0.0422
      3 C         138.6257  139.3079  162.9296 C.ar    1  UNL1        0.1485
      4 C         138.0652  140.6989  162.9582 C.ar    1  UNL1        0.0743
      5 C         138.1961  141.5852  161.7553 C.ar    1  UNL1        0.1417
      6 C         138.8876  141.0805  160.5236 C.ar    1  UNL1        0.0416
      7 N         141.6313  139.2878  159.1450 N.am    1  UNL1       -0.2644
      8 C         140.1396  139.1848  159.2631 C.2     1  UNL1        0.2508
      9 O         139.3392  138.5771  158.1495 O.2     1  UNL1       -0.2698
     10 H         142.1566  139.6866  159.8759 H       1  UNL1        0.1566
     11 N         143.4491  137.3278  156.3308 N.ar    1  UNL1       -0.2357
     12 C         143.3247  138.6852  155.7047 C.ar    1  UNL1        0.0988
     13 C         142.6286  139.5847  156.6828 C.ar    1  UNL1        0.0565
     14 C         142.3228  138.7831  157.9132 C.ar    1  UNL1        0.1557
     15 N         142.8299  137.3883  157.6957 N.ar    1  UNL1       -0.1534
     16 C         144.0816  136.1217  155.7023 C.3     1  UNL1        0.2423
     17 P         143.2977  134.8504  155.5628 P.3     1  UNL1        0.3677
     18 O         142.5137  133.5792  155.4233 O.2     1  UNL1       -0.2557
     19 O         143.9509  134.3116  156.8009 O.3     1  UNL1       -0.2928
     20 C         145.1973  132.0525  157.1054 C.3     1  UNL1        0.0352
     21 C         143.9202  132.8391  157.0849 C.3     1  UNL1        0.1515
     22 O         142.6444  135.3892  154.3246 O.3     1  UNL1       -0.2928
     23 C         141.1486  135.4109  154.2147 C.3     1  UNL1        0.1515
     24 C         140.3386  136.2409  155.1660 C.3     1  UNL1        0.0352
     25 O         138.4947  138.4215  164.1326 O.3     1  UNL1       -0.4534
     26 C         138.9227  138.9196  165.4813 C.ar    1  UNL1        0.1454
     27 C         140.3169  139.4354  165.6825 C.ar    1  UNL1        0.0388
     28 C         140.7449  139.9335  167.0311 C.ar    1  UNL1        0.0215
     29 C         139.7788  139.9157  168.1785 C.ar    1  UNL1        0.1059
     30 C         138.3848  139.3998  167.9772 C.ar    1  UNL1        0.0215
     31 C         137.9567  138.9018  166.6286 C.ar    1  UNL1        0.0388
     32 S         140.2068  140.4137  169.5271 S.O2    1  UNL1        0.0105
     33 C         140.6348  140.9118  170.8757 C.3     1  UNL1        0.1816
     34 O         138.9958  139.7802  170.1454 O.2     1  UNL1       -0.1686
     35 O         141.4178  141.0472  168.9088 O.2     1  UNL1       -0.1686
     36 O         137.6356  142.9762  161.7839 O.3     1  UNL1       -0.4765
     37 C         138.2347  144.0077  162.6934 C.3     1  UNL1        0.1951
     38 C         137.8003  144.0868  164.1269 C.3     1  UNL1        0.0500
     39 C         139.2684  144.9600  162.1693 C.3     1  UNL1        0.1807
     40 O         138.8443  146.2382  161.5087 O.3     1  UNL1       -0.3785
     41 H         138.3767  146.0358  160.6833 H       1  UNL1        0.2106
@<TRIPOS>BOND
     1    20    21    1
     2    21    19    1
     3    19    17    1
     4    17    18    2
     5    17    16    1
     6    16    11    1
     7    11    12   ar
     8    12    13   ar
     9    13    14   ar
    10    14     7    1
    11     7     8   am
    12     8     9    2
    13     8     1    1
    14     1     2   ar
    15     2     3   ar
    16     3    25    1
    17    25    26    1
    18    26    27   ar
    19    27    28   ar
    20    28    29   ar
    21    29    32    1
    22    32    33    1
    23    32    34    2
    24    32    35    2
    25    29    30   ar
    26    30    31   ar
    27     3     4   ar
    28     4     5   ar
    29     5    36    1
    30    36    37    1
    31    37    38    1
    32    37    39    1
    33    39    40    1
    34     5     6   ar
    35    14    15   ar
    36    17    22    1
    37    22    23    1
    38    23    24    1
    39    15    11   ar
    40     6     1   ar
    41    31    26   ar
    42     7    10    1
    43    40    41    1
@<TRIPOS>MOLECULE
*****
 41 43 0 0 0
SMALL
GASTEIGER

@<TRIPOS>ATOM
      1 C         139.5807  139.9103  160.6124 C.ar    1  UNL1        0.0597
      2 C         139.4162  139.1035  161.8661 C.ar    1  UNL1        0.0422
      3 C         138.7984  139.7260  163.0829 C.ar    1  UNL1        0.1485
      4 C         138.3452  141.1555  163.0460 C.ar    1  UNL1        0.0743
      5 C         138.5098  141.9623  161.7923 C.ar    1  UNL1        0.1417
      6 C         139.1275  141.3397  160.5755 C.ar    1  UNL1        0.0416
      7 N         141.6860  139.1112  159.3164 N.am    1  UNL1       -0.2644
      8 C         140.1986  139.2877  159.3955 C.2     1  UNL1        0.2508
      9 O         139.3288  138.8416  158.2577 O.2     1  UNL1       -0.2698
     10 H         142.2568  139.4040  160.0632 H       1  UNL1        0.1566
     11 N         143.2123  136.8556  156.5509 N.ar    1  UNL1       -0.2357
     12 C         143.2966  138.2058  155.9029 C.ar    1  UNL1        0.0988
     13 C         142.7351  139.2152  156.8600 C.ar    1  UNL1        0.0565
     14 C         142.3038  138.4887  158.0995 C.ar    1  UNL1        0.1557
     15 N         142.5988  137.0304  157.9084 N.ar    1  UNL1       -0.1534
     16 C         143.6626  135.5584  155.9473 C.3     1  UNL1        0.2423
     17 P         142.8447  134.3162  156.1427 P.3     1  UNL1        0.3677
     18 O         142.0268  133.0741  156.3381 O.2     1  UNL1       -0.2557
     19 O         141.9222  134.7506  155.0426 O.3     1  UNL1       -0.2928
     20 C         141.5884  134.2677  152.5117 C.3     1  UNL1        0.0352
     21 C         141.5738  133.7991  153.9365 C.3     1  UNL1        0.1515
     22 O         143.7672  133.8819  157.2429 O.3     1  UNL1       -0.2928
     23 C         144.4132  132.5292  157.1898 C.3     1  UNL1        0.1515
     24 C         145.5786  132.2190  158.0818 C.3     1  UNL1        0.0352
     25 O         138.6338  138.9192  164.3367 O.3     1  UNL1       -0.4534
     26 C         139.4746  139.2245  165.5408 C.ar    1  UNL1        0.1454
     27 C         138.8193  139.5672  166.8459 C.ar    1  UNL1        0.0388
     28 C         139.6602  139.8725  168.0500 C.ar    1  UNL1        0.0215
     29 C         141.1564  139.8350  167.9490 C.ar    1  UNL1        0.1059
     30 C         141.8116  139.4922  166.6439 C.ar    1  UNL1        0.0215
     31 C         140.9707  139.1870  165.4399 C.ar    1  UNL1        0.0388
     32 S         141.9972  140.1402  169.1530 S.O2    1  UNL1        0.0105
     33 C         142.8381  140.4455  170.3571 C.3     1  UNL1        0.1816
     34 O         143.0151  139.1375  168.6964 O.2     1  UNL1       -0.1686
     35 O         140.9793  141.1429  169.6096 O.2     1  UNL1       -0.1686
     36 O         138.0566  143.3917  161.7554 O.3     1  UNL1       -0.4765
     37 C         138.8560  144.4503  162.4556 C.3     1  UNL1        0.1951
     38 C         138.6667  144.6839  163.9251 C.3     1  UNL1        0.0500
     39 C         139.8448  145.2753  161.6862 C.3     1  UNL1        0.1807
     40 O         140.1575  146.6747  162.1264 O.3     1  UNL1       -0.3785
     41 H         139.3686  147.2297  162.0241 H       1  UNL1        0.2106
@<TRIPOS>BOND
     1    20    21    1
     2    21    19    1
     3    19    17    1
     4    17    18    2
     5    17    16    1
     6    16    11    1
     7    11    12   ar
     8    12    13   ar
     9    13    14   ar
    10    14     7    1
    11     7     8   am
    12     8     9    2
    13     8     1    1
    14     1     2   ar
    15     2     3   ar
    16     3    25    1
    17    25    26    1
    18    26    27   ar
    19    27    28   ar
    20    28    29   ar
    21    29    32    1
    22    32    33    1
    23    32    34    2
    24    32    35    2
    25    29    30   ar
    26    30    31   ar
    27     3     4   ar
    28     4     5   ar
    29     5    36    1
    30    36    37    1
    31    37    38    1
    32    37    39    1
    33    39    40    1
    34     5     6   ar
    35    14    15   ar
    36    17    22    1
    37    22    23    1
    38    23    24    1
    39    15    11   ar
    40     6     1   ar
    41    31    26   ar
    42     7    10    1
    43    40    41    1
@<TRIPOS>MOLECULE
*****
 41 43 0 0 0
SMALL
GASTEIGER

@<TRIPOS>ATOM
      1 C         143.6633  139.6628  160.6601 C.ar    1  UNL1        0.0597
      2 C         143.6124  138.8685  161.9315 C.ar    1  UNL1        0.0422
      3 C         143.8379  139.5479  163.2497 C.ar    1  UNL1        0.1485
      4 C         144.1142  141.0215  163.2964 C.ar    1  UNL1        0.0743
      5 C         144.1651  141.8157  162.0250 C.ar    1  UNL1        0.1417
      6 C         143.9396  141.1363  160.7068 C.ar    1  UNL1        0.0416
      7 N         142.5723  137.7606  159.2666 N.am    1  UNL1       -0.2644
      8 C         143.4378  138.9834  159.3418 C.2     1  UNL1        0.2508
      9 O         144.0778  139.5269  158.0989 O.2     1  UNL1       -0.2698
     10 H         142.1522  137.4039  160.0824 H       1  UNL1        0.1566
     11 N         142.4647  135.4843  156.1246 N.ar    1  UNL1       -0.2357
     12 C         141.5347  136.5877  155.7150 C.ar    1  UNL1        0.0988
     13 C         141.4619  137.5747  156.8423 C.ar    1  UNL1        0.0565
     14 C         142.3468  137.0813  157.9483 C.ar    1  UNL1        0.1557
     15 N         142.9666  135.7894  157.5048 N.ar    1  UNL1       -0.1534
     16 C         142.8289  134.2862  155.2989 C.3     1  UNL1        0.2423
     17 P         142.6674  132.9070  155.8662 P.3     1  UNL1        0.3677
     18 O         142.5060  131.5279  156.4335 O.2     1  UNL1       -0.2557
     19 O         141.2512  132.8700  155.3734 O.3     1  UNL1       -0.2928
     20 C         139.9360  130.8185  154.4728 C.3     1  UNL1        0.0352
     21 C         140.8755  131.9640  154.2385 C.3     1  UNL1        0.1515
     22 O         144.0838  132.9441  156.3590 O.3     1  UNL1       -0.2928
     23 C         144.5090  132.0511  157.4868 C.3     1  UNL1        0.1515
     24 C         145.7725  132.3444  158.2402 C.3     1  UNL1        0.0352
     25 O         143.7871  138.7536  164.5212 O.3     1  UNL1       -0.4534
     26 C         142.8321  139.1424  165.6106 C.ar    1  UNL1        0.1454
     27 C         143.2617  139.0693  167.0460 C.ar    1  UNL1        0.0388
     28 C         142.3067  139.4580  168.1354 C.ar    1  UNL1        0.0215
     29 C         140.9220  139.9199  167.7894 C.ar    1  UNL1        0.1059
     30 C         140.4925  139.9930  166.3541 C.ar    1  UNL1        0.0215
     31 C         141.4475  139.6042  165.2647 C.ar    1  UNL1        0.0388
     32 S         139.9670  140.3087  168.8788 S.O2    1  UNL1        0.0105
     33 C         139.0120  140.6974  169.9683 C.3     1  UNL1        0.1816
     34 O         141.0226  141.1793  169.4935 O.2     1  UNL1       -0.1686
     35 O         138.9115  139.4380  168.2642 O.2     1  UNL1       -0.1686
     36 O         144.4414  143.2893  162.0717 O.3     1  UNL1       -0.4765
     37 C         143.3512  144.2450  162.4564 C.3     1  UNL1        0.1951
     38 C         143.5144  145.1232  163.6614 C.3     1  UNL1        0.0500
     39 C         142.0977  144.3225  161.6361 C.3     1  UNL1        0.1807
     40 O         141.9487  145.3903  160.5933 O.3     1  UNL1       -0.3785
     41 H         141.9155  146.2593  161.0228 H       1  UNL1        0.2106
@<TRIPOS>BOND
     1    20    21    1
     2    21    19    1
     3    19    17    1
     4    17    18    2
     5    17    16    1
     6    16    11    1
     7    11    12   ar
     8    12    13   ar
     9    13    14   ar
    10    14     7    1
    11     7     8   am
    12     8     9    2
    13     8     1    1
    14     1     2   ar
    15     2     3   ar
    16     3    25    1
    17    25    26    1
    18    26    27   ar
    19    27    28   ar
    20    28    29   ar
    21    29    32    1
    22    32    33    1
    23    32    34    2
    24    32    35    2
    25    29    30   ar
    26    30    31   ar
    27     3     4   ar
    28     4     5   ar
    29     5    36    1
    30    36    37    1
    31    37    38    1
    32    37    39    1
    33    39    40    1
    34     5     6   ar
    35    14    15   ar
    36    17    22    1
    37    22    23    1
    38    23    24    1
    39    15    11   ar
    40     6     1   ar
    41    31    26   ar
    42     7    10    1
    43    40    41    1
@<TRIPOS>MOLECULE
*****
 41 43 0 0 0
SMALL
GASTEIGER

@<TRIPOS>ATOM
      1 C         142.6111  140.5319  160.8976 C.ar    1  UNL1        0.0597
      2 C         143.3541  140.6808  162.1921 C.ar    1  UNL1        0.0422
      3 C         142.8524  141.6298  163.2398 C.ar    1  UNL1        0.1485
      4 C         141.6078  142.4298  162.9930 C.ar    1  UNL1        0.0743
      5 C         140.8648  142.2809  161.6985 C.ar    1  UNL1        0.1417
      6 C         141.3665  141.3319  160.6508 C.ar    1  UNL1        0.0416
      7 N         142.3632  139.4250  158.5602 N.am    1  UNL1       -0.2644
      8 C         143.1128  139.5830  159.8497 C.2     1  UNL1        0.2508
      9 O         144.3642  138.7919  160.0916 O.2     1  UNL1       -0.2698
     10 H         141.5419  139.9442  158.4014 H       1  UNL1        0.1566
     11 N         143.5251  136.4403  156.3677 N.ar    1  UNL1       -0.2357
     12 C         143.7486  137.5914  155.4322 C.ar    1  UNL1        0.0988
     13 C         143.3406  138.8497  156.1397 C.ar    1  UNL1        0.0565
     14 C         142.8649  138.4761  157.5123 C.ar    1  UNL1        0.1557
     15 N         142.9790  136.9871  157.6532 N.ar    1  UNL1       -0.1534
     16 C         143.7996  134.9961  156.0698 C.3     1  UNL1        0.2423
     17 P         142.6654  134.0177  155.9914 P.3     1  UNL1        0.3677
     18 O         141.5311  133.0392  155.9131 O.2     1  UNL1       -0.2557
     19 O         142.3738  134.4677  154.5906 O.3     1  UNL1       -0.2928
     20 C         140.9209  136.2675  153.4075 C.3     1  UNL1        0.0352
     21 C         141.0259  135.0300  154.2487 C.3     1  UNL1        0.1515
     22 O         142.9569  133.5676  157.3924 O.3     1  UNL1       -0.2928
     23 C         144.3667  133.2622  157.8039 C.3     1  UNL1        0.1515
     24 C         144.8745  131.8518  157.7514 C.3     1  UNL1        0.0352
     25 O         143.5953  141.7787  164.5344 O.3     1  UNL1       -0.4534
     26 C         142.9271  141.4189  165.8283 C.ar    1  UNL1        0.1454
     27 C         143.0608  142.3225  167.0181 C.ar    1  UNL1        0.0388
     28 C         142.3926  141.9627  168.3120 C.ar    1  UNL1        0.0215
     29 C         141.5907  140.6993  168.4160 C.ar    1  UNL1        0.1059
     30 C         141.4571  139.7957  167.2262 C.ar    1  UNL1        0.0215
     31 C         142.1253  140.1555  165.9323 C.ar    1  UNL1        0.0388
     32 S         140.9225  140.3394  169.7098 S.O2    1  UNL1        0.0105
     33 C         140.2543  139.9796  171.0037 C.3     1  UNL1        0.1816
     34 O         139.7716  139.7482  168.9510 O.2     1  UNL1       -0.1686
     35 O         142.0735  140.9306  170.4686 O.2     1  UNL1       -0.1686
     36 O         139.6202  143.0809  161.4517 O.3     1  UNL1       -0.4765
     37 C         138.4179  142.8868  162.3274 C.3     1  UNL1        0.1951
     38 C         137.7474  144.0731  162.9543 C.3     1  UNL1        0.0500
     39 C         137.8862  141.5064  162.5762 C.3     1  UNL1        0.1807
     40 O         136.5075  141.3238  163.1381 O.3     1  UNL1       -0.3785
     41 H         136.4777  141.6745  164.0420 H       1  UNL1        0.2106
@<TRIPOS>BOND
     1    20    21    1
     2    21    19    1
     3    19    17    1
     4    17    18    2
     5    17    16    1
     6    16    11    1
     7    11    12   ar
     8    12    13   ar
     9    13    14   ar
    10    14     7    1
    11     7     8   am
    12     8     9    2
    13     8     1    1
    14     1     2   ar
    15     2     3   ar
    16     3    25    1
    17    25    26    1
    18    26    27   ar
    19    27    28   ar
    20    28    29   ar
    21    29    32    1
    22    32    33    1
    23    32    34    2
    24    32    35    2
    25    29    30   ar
    26    30    31   ar
    27     3     4   ar
    28     4     5   ar
    29     5    36    1
    30    36    37    1
    31    37    38    1
    32    37    39    1
    33    39    40    1
    34     5     6   ar
    35    14    15   ar
    36    17    22    1
    37    22    23    1
    38    23    24    1
    39    15    11   ar
    40     6     1   ar
    41    31    26   ar
    42     7    10    1
    43    40    41    1
@<TRIPOS>MOLECULE
*****
 41 43 0 0 0
SMALL
GASTEIGER

@<TRIPOS>ATOM
      1 C         138.2963  140.4733  160.8602 C.ar    1  UNL1        0.0597
      2 C         138.4098  139.4989  161.9949 C.ar    1  UNL1        0.0422
      3 C         138.2654  139.9753  163.4099 C.ar    1  UNL1        0.1485
      4 C         138.0075  141.4262  163.6901 C.ar    1  UNL1        0.0743
      5 C         137.8941  142.4006  162.5554 C.ar    1  UNL1        0.1417
      6 C         138.0385  141.9241  161.1405 C.ar    1  UNL1        0.0416
      7 N         139.7142  139.3404  159.0011 N.am    1  UNL1       -0.2644
      8 C         138.4407  139.9968  159.4452 C.2     1  UNL1        0.2508
      9 O         137.3115  140.1769  158.4743 O.2     1  UNL1       -0.2698
     10 H         140.4553  139.2222  159.6383 H       1  UNL1        0.1566
     11 N         140.2828  137.4528  155.6575 N.ar    1  UNL1       -0.2357
     12 C         139.8786  138.8089  155.1597 C.ar    1  UNL1        0.0988
     13 C         139.6164  139.6810  156.3517 C.ar    1  UNL1        0.0565
     14 C         139.8586  138.8639  157.5861 C.ar    1  UNL1        0.1557
     15 N         140.2705  137.4869  157.1571 N.ar    1  UNL1       -0.1534
     16 C         140.6372  136.2704  154.8054 C.3     1  UNL1        0.2423
     17 P         142.0246  135.7018  154.8511 P.3     1  UNL1        0.3677
     18 O         143.4119  135.1333  154.8967 O.2     1  UNL1       -0.2557
     19 O         141.4608  134.3531  155.1874 O.3     1  UNL1       -0.2928
     20 C         142.1340  131.9093  155.7571 C.3     1  UNL1        0.0352
     21 C         142.2420  133.1130  154.8685 C.3     1  UNL1        0.1515
     22 O         142.5883  137.0506  154.5147 O.3     1  UNL1       -0.2928
     23 C         143.7283  137.6077  155.3147 C.3     1  UNL1        0.1515
     24 C         143.5495  138.8790  156.0905 C.3     1  UNL1        0.0352
     25 O         138.3788  139.0009  164.5447 O.3     1  UNL1       -0.4534
     26 C         139.2945  139.2939  165.6961 C.ar    1  UNL1        0.1454
     27 C         138.7234  139.6541  167.0356 C.ar    1  UNL1        0.0388
     28 C         139.6390  139.9471  168.1871 C.ar    1  UNL1        0.0215
     29 C         141.1257  139.8800  167.9989 C.ar    1  UNL1        0.1059
     30 C         141.6967  139.5199  166.6595 C.ar    1  UNL1        0.0215
     31 C         140.7811  139.2269  165.5081 C.ar    1  UNL1        0.0388
     32 S         142.0414  140.1730  169.1504 S.O2    1  UNL1        0.0105
     33 C         142.9570  140.4660  170.3018 C.3     1  UNL1        0.1816
     34 O         141.0257  141.1204  169.7169 O.2     1  UNL1       -0.1686
     35 O         143.0570  139.2257  168.5838 O.2     1  UNL1       -0.1686
     36 O         137.6362  143.8515  162.8356 O.3     1  UNL1       -0.4765
     37 C         138.7755  144.7612  163.1884 C.3     1  UNL1        0.1951
     38 C         139.2274  144.8791  164.6138 C.3     1  UNL1        0.0500
     39 C         139.4628  145.5531  162.1157 C.3     1  UNL1        0.1807
     40 O         140.4251  146.6420  162.4874 O.3     1  UNL1       -0.3785
     41 H         139.9468  147.3570  162.9358 H       1  UNL1        0.2106
@<TRIPOS>BOND
     1    20    21    1
     2    21    19    1
     3    19    17    1
     4    17    18    2
     5    17    16    1
     6    16    11    1
     7    11    12   ar
     8    12    13   ar
     9    13    14   ar
    10    14     7    1
    11     7     8   am
    12     8     9    2
    13     8     1    1
    14     1     2   ar
    15     2     3   ar
    16     3    25    1
    17    25    26    1
    18    26    27   ar
    19    27    28   ar
    20    28    29   ar
    21    29    32    1
    22    32    33    1
    23    32    34    2
    24    32    35    2
    25    29    30   ar
    26    30    31   ar
    27     3     4   ar
    28     4     5   ar
    29     5    36    1
    30    36    37    1
    31    37    38    1
    32    37    39    1
    33    39    40    1
    34     5     6   ar
    35    14    15   ar
    36    17    22    1
    37    22    23    1
    38    23    24    1
    39    15    11   ar
    40     6     1   ar
    41    31    26   ar
    42     7    10    1
    43    40    41    1
@<TRIPOS>MOLECULE
*****
 41 43 0 0 0
SMALL
GASTEIGER

@<TRIPOS>ATOM
      1 C         143.4306  139.8474  159.9056 C.ar    1  UNL1        0.0597
      2 C         144.0883  139.7793  161.2519 C.ar    1  UNL1        0.0422
      3 C         144.4671  141.0427  161.9663 C.ar    1  UNL1        0.1485
      4 C         144.1882  142.3741  161.3343 C.ar    1  UNL1        0.0743
      5 C         143.5305  142.4422  159.9879 C.ar    1  UNL1        0.1417
      6 C         143.1517  141.1788  159.2736 C.ar    1  UNL1        0.0416
      7 N         143.0938  138.5282  157.6928 N.am    1  UNL1       -0.2644
      8 C         143.0518  138.5840  159.1911 C.2     1  UNL1        0.2508
      9 O         142.6309  137.3764  159.9751 O.2     1  UNL1       -0.2698
     10 H         143.3701  139.3207  157.1783 H       1  UNL1        0.1566
     11 N         142.8260  135.0551  155.9806 N.ar    1  UNL1       -0.2357
     12 C         141.4379  135.5862  155.7773 C.ar    1  UNL1        0.0988
     13 C         141.3694  136.9520  156.3940 C.ar    1  UNL1        0.0565
     14 C         142.7150  137.2648  156.9784 C.ar    1  UNL1        0.1557
     15 N         143.6152  136.0925  156.7229 N.ar    1  UNL1       -0.1534
     16 C         143.3353  133.7208  155.5222 C.3     1  UNL1        0.2423
     17 P         142.3970  132.5552  155.4178 P.3     1  UNL1        0.3677
     18 O         141.4586  131.3897  155.3134 O.2     1  UNL1       -0.2557
     19 O         142.5630  132.2901  156.8848 O.3     1  UNL1       -0.2928
     20 C         144.7090  131.0880  157.7209 C.3     1  UNL1        0.0352
     21 C         143.2568  131.0435  157.3479 C.3     1  UNL1        0.1515
     22 O         142.2310  132.8204  153.9507 O.3     1  UNL1       -0.2928
     23 C         142.5220  131.7368  152.9551 C.3     1  UNL1        0.1515
     24 C         143.7368  130.8725  153.1209 C.3     1  UNL1        0.0352
     25 O         145.1249  140.9746  163.3127 O.3     1  UNL1       -0.4534
     26 C         144.2966  140.7398  164.5410 C.ar    1  UNL1        0.1454
     27 C         143.7733  141.9054  165.3269 C.ar    1  UNL1        0.0388
     28 C         142.9450  141.6706  166.5552 C.ar    1  UNL1        0.0215
     29 C         142.6401  140.2701  166.9977 C.ar    1  UNL1        0.1059
     30 C         143.1634  139.1045  166.2119 C.ar    1  UNL1        0.0215
     31 C         143.9917  139.3394  164.9835 C.ar    1  UNL1        0.0388
     32 S         141.8118  140.0352  168.2260 S.O2    1  UNL1        0.0105
     33 C         140.9835  139.8004  169.4543 C.3     1  UNL1        0.1816
     34 O         143.0591  139.9861  169.0577 O.2     1  UNL1       -0.1686
     35 O         140.5644  140.0844  167.3943 O.2     1  UNL1       -0.1686
     36 O         143.2515  143.7737  159.3560 O.3     1  UNL1       -0.4765
     37 C         141.8568  144.3255  159.3541 C.3     1  UNL1        0.1951
     38 C         140.8059  143.7110  160.2305 C.3     1  UNL1        0.0500
     39 C         141.5128  145.4920  158.4759 C.3     1  UNL1        0.1807
     40 O         142.6052  146.3048  157.8466 O.3     1  UNL1       -0.3785
     41 H         143.1057  146.7646  158.5386 H       1  UNL1        0.2106
@<TRIPOS>BOND
     1    20    21    1
     2    21    19    1
     3    19    17    1
     4    17    18    2
     5    17    16    1
     6    16    11    1
     7    11    12   ar
     8    12    13   ar
     9    13    14   ar
    10    14     7    1
    11     7     8   am
    12     8     9    2
    13     8     1    1
    14     1     2   ar
    15     2     3   ar
    16     3    25    1
    17    25    26    1
    18    26    27   ar
    19    27    28   ar
    20    28    29   ar
    21    29    32    1
    22    32    33    1
    23    32    34    2
    24    32    35    2
    25    29    30   ar
    26    30    31   ar
    27     3     4   ar
    28     4     5   ar
    29     5    36    1
    30    36    37    1
    31    37    38    1
    32    37    39    1
    33    39    40    1
    34     5     6   ar
    35    14    15   ar
    36    17    22    1
    37    22    23    1
    38    23    24    1
    39    15    11   ar
    40     6     1   ar
    41    31    26   ar
    42     7    10    1
    43    40    41    1
@<TRIPOS>MOLECULE
*****
 41 43 0 0 0
SMALL
GASTEIGER

@<TRIPOS>ATOM
      1 C         142.8921  140.2948  159.5133 C.ar    1  UNL1        0.0597
      2 C         143.6734  139.9292  160.7404 C.ar    1  UNL1        0.0422
      3 C         144.1365  141.0013  161.6817 C.ar    1  UNL1        0.1485
      4 C         143.8183  142.4390  161.3959 C.ar    1  UNL1        0.0743
      5 C         143.0369  142.8046  160.1688 C.ar    1  UNL1        0.1417
      6 C         142.5738  141.7325  159.2275 C.ar    1  UNL1        0.0416
      7 N         143.3063  138.7938  157.4335 N.am    1  UNL1       -0.2644
      8 C         142.4289  139.2226  158.5720 C.2     1  UNL1        0.2508
      9 O         141.0883  138.5793  158.7692 O.2     1  UNL1       -0.2698
     10 H         144.1862  139.2161  157.3041 H       1  UNL1        0.1566
     11 N         142.6435  135.6029  155.3253 N.ar    1  UNL1       -0.2357
     12 C         141.6174  136.5409  154.7619 C.ar    1  UNL1        0.0988
     13 C         141.7408  137.8504  155.4831 C.ar    1  UNL1        0.0565
     14 C         142.8432  137.7217  156.4922 C.ar    1  UNL1        0.1557
     15 N         143.4011  136.3327  156.3946 N.ar    1  UNL1       -0.1534
     16 C         142.8719  134.1844  154.8949 C.3     1  UNL1        0.2423
     17 P         142.6925  133.0645  155.8767 P.3     1  UNL1        0.3677
     18 O         142.5130  131.9447  156.8584 O.2     1  UNL1       -0.2557
     19 O         144.0963  133.2674  156.3648 O.3     1  UNL1       -0.2928
     20 C         145.6774  132.2325  158.1477 C.3     1  UNL1        0.0352
     21 C         144.4367  133.0010  157.8011 C.3     1  UNL1        0.1515
     22 O         141.2887  132.8617  155.3886 O.3     1  UNL1       -0.2928
     23 C         140.9878  131.7730  154.4015 C.3     1  UNL1        0.1515
     24 C         139.9151  130.7673  154.6979 C.3     1  UNL1        0.0352
     25 O         144.9179  140.6357  162.9089 O.3     1  UNL1       -0.4534
     26 C         144.2135  140.4583  164.2213 C.ar    1  UNL1        0.1454
     27 C         143.7265  141.6577  164.9792 C.ar    1  UNL1        0.0388
     28 C         143.0221  141.4802  166.2916 C.ar    1  UNL1        0.0215
     29 C         142.8048  140.1034  166.8460 C.ar    1  UNL1        0.1059
     30 C         143.2918  138.9042  166.0881 C.ar    1  UNL1        0.0215
     31 C         143.9962  139.0816  164.7757 C.ar    1  UNL1        0.0388
     32 S         142.1004  139.9260  168.1584 S.O2    1  UNL1        0.0105
     33 C         141.3960  139.7486  169.4708 C.3     1  UNL1        0.1816
     34 O         143.0961  138.8750  168.5508 O.2     1  UNL1       -0.1686
     35 O         141.1047  140.9770  167.7661 O.2     1  UNL1       -0.1686
     36 O         142.7187  144.2423  159.8830 O.3     1  UNL1       -0.4765
     37 C         141.3030  144.7296  159.9742 C.3     1  UNL1        0.1951
     38 C         140.4550  144.8057  158.7392 C.3     1  UNL1        0.0500
     39 C         140.7353  145.1408  161.3003 C.3     1  UNL1        0.1807
     40 O         139.2492  145.2197  161.4880 O.3     1  UNL1       -0.3785
     41 H         138.8902  145.9281  160.9311 H       1  UNL1        0.2106
@<TRIPOS>BOND
     1    20    21    1
     2    21    19    1
     3    19    17    1
     4    17    18    2
     5    17    16    1
     6    16    11    1
     7    11    12   ar
     8    12    13   ar
     9    13    14   ar
    10    14     7    1
    11     7     8   am
    12     8     9    2
    13     8     1    1
    14     1     2   ar
    15     2     3   ar
    16     3    25    1
    17    25    26    1
    18    26    27   ar
    19    27    28   ar
    20    28    29   ar
    21    29    32    1
    22    32    33    1
    23    32    34    2
    24    32    35    2
    25    29    30   ar
    26    30    31   ar
    27     3     4   ar
    28     4     5   ar
    29     5    36    1
    30    36    37    1
    31    37    38    1
    32    37    39    1
    33    39    40    1
    34     5     6   ar
    35    14    15   ar
    36    17    22    1
    37    22    23    1
    38    23    24    1
    39    15    11   ar
    40     6     1   ar
    41    31    26   ar
    42     7    10    1
    43    40    41    1
@<TRIPOS>MOLECULE
*****
 41 43 0 0 0
SMALL
GASTEIGER

@<TRIPOS>ATOM
      1 C         142.8425  140.9550  160.2045 C.ar    1  UNL1        0.0597
      2 C         143.6982  140.9796  161.4362 C.ar    1  UNL1        0.0422
      3 C         143.3308  141.8687  162.5870 C.ar    1  UNL1        0.1485
      4 C         142.1076  142.7332  162.5061 C.ar    1  UNL1        0.0743
      5 C         141.2520  142.7087  161.2744 C.ar    1  UNL1        0.1417
      6 C         141.6194  141.8196  160.1236 C.ar    1  UNL1        0.0416
      7 N         142.2352  139.0392  158.5581 N.am    1  UNL1       -0.2644
      8 C         143.2100  140.0659  159.0536 C.2     1  UNL1        0.2508
      9 O         144.5522  140.2035  158.3983 O.2     1  UNL1       -0.2698
     10 H         141.3542  138.9489  158.9882 H       1  UNL1        0.1566
     11 N         143.3259  136.2269  156.1153 N.ar    1  UNL1       -0.2357
     12 C         143.0101  137.3369  155.1569 C.ar    1  UNL1        0.0988
     13 C         142.5630  138.5255  155.9554 C.ar    1  UNL1        0.0565
     14 C         142.6026  138.1501  157.4072 C.ar    1  UNL1        0.1557
     15 N         143.0740  136.7295  157.5059 N.ar    1  UNL1       -0.1534
     16 C         143.8087  134.8553  155.7475 C.3     1  UNL1        0.2423
     17 P         143.0190  133.6474  156.1565 P.3     1  UNL1        0.3677
     18 O         142.2293  132.4395  156.5655 O.2     1  UNL1       -0.2557
     19 O         144.0757  133.2969  157.1618 O.3     1  UNL1       -0.2928
     20 C         145.0464  131.0552  158.0464 C.3     1  UNL1        0.0352
     21 C         144.9306  132.0813  156.9584 C.3     1  UNL1        0.1515
     22 O         141.9623  133.9979  155.1512 O.3     1  UNL1       -0.2928
     23 C         142.2263  133.8047  153.6873 C.3     1  UNL1        0.1515
     24 C         141.6772  134.7821  152.6908 C.3     1  UNL1        0.0352
     25 O         144.1865  141.8933  163.8188 O.3     1  UNL1       -0.4534
     26 C         143.6074  141.4898  165.1424 C.ar    1  UNL1        0.1454
     27 C         143.1539  140.0772  165.3634 C.ar    1  UNL1        0.0388
     28 C         142.5748  139.6737  166.6870 C.ar    1  UNL1        0.0215
     29 C         142.4493  140.6829  167.7896 C.ar    1  UNL1        0.1059
     30 C         142.9028  142.0955  167.5687 C.ar    1  UNL1        0.0215
     31 C         143.4819  142.4990  166.2451 C.ar    1  UNL1        0.0388
     32 S         141.8703  140.2794  169.1132 S.O2    1  UNL1        0.0105
     33 C         141.2912  139.8760  170.4368 C.3     1  UNL1        0.1816
     34 O         140.6162  139.8261  168.4264 O.2     1  UNL1       -0.1686
     35 O         143.1244  140.7328  169.8001 O.2     1  UNL1       -0.1686
     36 O         140.0288  143.5732  161.1935 O.3     1  UNL1       -0.4765
     37 C         140.1512  145.0086  160.7756 C.3     1  UNL1        0.1951
     38 C         140.4248  145.3513  159.3412 C.3     1  UNL1        0.0500
     39 C         140.0001  146.1012  161.7922 C.3     1  UNL1        0.1807
     40 O         141.0016  146.2384  162.9003 O.3     1  UNL1       -0.3785
     41 H         140.9464  145.4654  163.4836 H       1  UNL1        0.2106
@<TRIPOS>BOND
     1    20    21    1
     2    21    19    1
     3    19    17    1
     4    17    18    2
     5    17    16    1
     6    16    11    1
     7    11    12   ar
     8    12    13   ar
     9    13    14   ar
    10    14     7    1
    11     7     8   am
    12     8     9    2
    13     8     1    1
    14     1     2   ar
    15     2     3   ar
    16     3    25    1
    17    25    26    1
    18    26    27   ar
    19    27    28   ar
    20    28    29   ar
    21    29    32    1
    22    32    33    1
    23    32    34    2
    24    32    35    2
    25    29    30   ar
    26    30    31   ar
    27     3     4   ar
    28     4     5   ar
    29     5    36    1
    30    36    37    1
    31    37    38    1
    32    37    39    1
    33    39    40    1
    34     5     6   ar
    35    14    15   ar
    36    17    22    1
    37    22    23    1
    38    23    24    1
    39    15    11   ar
    40     6     1   ar
    41    31    26   ar
    42     7    10    1
    43    40    41    1
@<TRIPOS>MOLECULE
*****
 41 43 0 0 0
SMALL
GASTEIGER

@<TRIPOS>ATOM
      1 C         137.6105  141.8109  157.2726 C.ar    1  UNL1        0.0597
      2 C         136.5481  141.0301  156.5574 C.ar    1  UNL1        0.0422
      3 C         135.8537  141.6238  155.3678 C.ar    1  UNL1        0.1485
      4 C         136.2218  142.9984  154.8932 C.ar    1  UNL1        0.0743
      5 C         137.2843  143.7792  155.6084 C.ar    1  UNL1        0.1417
      6 C         137.9786  143.1855  156.7980 C.ar    1  UNL1        0.0416
      7 N         139.5897  141.8138  158.9557 N.am    1  UNL1       -0.2644
      8 C         138.3050  141.2172  158.4623 C.2     1  UNL1        0.2508
      9 O         137.7146  140.0270  159.1585 O.2     1  UNL1       -0.2698
     10 H         139.9772  142.5950  158.4987 H       1  UNL1        0.1566
     11 N         141.4558  139.6676  161.5972 N.ar    1  UNL1       -0.2357
     12 C         141.2495  140.9455  162.3553 C.ar    1  UNL1        0.0988
     13 C         140.5253  141.9050  161.4580 C.ar    1  UNL1        0.0565
     14 C         140.2841  141.2201  160.1454 C.ar    1  UNL1        0.1557
     15 N         140.8592  139.8374  160.2315 N.ar    1  UNL1       -0.1534
     16 C         142.1389  138.4363  162.1140 C.3     1  UNL1        0.2423
     17 P         141.6273  137.7577  163.3501 P.3     1  UNL1        0.3677
     18 O         141.1157  137.0790  164.5861 O.2     1  UNL1       -0.2557
     19 O         142.8181  138.2539  164.1154 O.3     1  UNL1       -0.2928
     20 C         143.8450  138.0708  166.4949 C.3     1  UNL1        0.0352
     21 C         142.7174  138.4810  165.5947 C.3     1  UNL1        0.1515
     22 O         140.4365  137.2615  162.5847 O.3     1  UNL1       -0.2928
     23 C         139.0513  137.5968  163.0526 C.3     1  UNL1        0.1515
     24 C         138.1141  138.3416  162.1489 C.3     1  UNL1        0.0352
     25 O         134.7912  140.8430  154.6526 O.3     1  UNL1       -0.4534
     26 C         133.5370  140.4480  155.3742 C.ar    1  UNL1        0.1454
     27 C         133.4969  139.1750  156.1668 C.ar    1  UNL1        0.0388
     28 C         132.2427  138.7800  156.8884 C.ar    1  UNL1        0.0215
     29 C         131.0284  139.6579  156.8175 C.ar    1  UNL1        0.1059
     30 C         131.0685  140.9308  156.0249 C.ar    1  UNL1        0.0215
     31 C         132.3227  141.3258  155.3033 C.ar    1  UNL1        0.0388
     32 S         129.7741  139.2629  157.5391 S.O2    1  UNL1        0.0105
     33 C         128.5199  138.8679  158.2607 C.3     1  UNL1        0.1816
     34 O         130.5738  138.3686  158.4395 O.2     1  UNL1       -0.1686
     35 O         128.9744  140.1572  156.6387 O.2     1  UNL1       -0.1686
     36 O         137.6524  145.1537  155.1339 O.3     1  UNL1       -0.4765
     37 C         139.0647  145.4537  154.7276 C.3     1  UNL1        0.1951
     38 C         139.8479  144.4471  153.9379 C.3     1  UNL1        0.0500
     39 C         139.6941  146.7603  155.1108 C.3     1  UNL1        0.1807
     40 O         140.3769  146.9029  156.4387 O.3     1  UNL1       -0.3785
     41 H         139.7216  146.8237  157.1495 H       1  UNL1        0.2106
@<TRIPOS>BOND
     1    20    21    1
     2    21    19    1
     3    19    17    1
     4    17    18    2
     5    17    16    1
     6    16    11    1
     7    11    12   ar
     8    12    13   ar
     9    13    14   ar
    10    14     7    1
    11     7     8   am
    12     8     9    2
    13     8     1    1
    14     1     2   ar
    15     2     3   ar
    16     3    25    1
    17    25    26    1
    18    26    27   ar
    19    27    28   ar
    20    28    29   ar
    21    29    32    1
    22    32    33    1
    23    32    34    2
    24    32    35    2
    25    29    30   ar
    26    30    31   ar
    27     3     4   ar
    28     4     5   ar
    29     5    36    1
    30    36    37    1
    31    37    38    1
    32    37    39    1
    33    39    40    1
    34     5     6   ar
    35    14    15   ar
    36    17    22    1
    37    22    23    1
    38    23    24    1
    39    15    11   ar
    40     6     1   ar
    41    31    26   ar
    42     7    10    1
    43    40    41    1
