@<TRIPOS>MOLECULE
*****
 23 24 0 0 0
SMALL
GASTEIGER

@<TRIPOS>ATOM
      1 C         139.9511  144.3970  162.2106 C.ar    1  UNL1        0.1358
      2 C         138.8942  144.6544  163.2434 C.ar    1  UNL1        0.0239
      3 C         138.7923  143.7680  164.4492 C.ar    1  UNL1        0.0045
      4 C         139.7473  142.6244  164.6223 C.ar    1  UNL1        0.0321
      5 C         140.8042  142.3670  163.5895 C.ar    1  UNL1        0.1254
      6 N         141.7592  141.2233  163.7625 N.pl3   1  UNL1       -0.3426
      7 N         140.9061  143.2533  162.3837 N.ar    1  UNL1       -0.2266
      8 H         141.6923  140.6416  164.5540 H       1  UNL1        0.1437
      9 H         142.4529  141.0544  163.0847 H       1  UNL1        0.1437
     10 C         139.6453  141.7380  165.8281 C.ar    1  UNL1        0.0149
     11 C         140.3852  142.0922  167.0839 C.ar    1  UNL1        0.0124
     12 C         140.2833  141.2059  168.2898 C.ar    1  UNL1        0.0586
     13 CL        141.0232  141.5601  169.5457 Cl      1  UNL1       -0.0822
     14 C         139.4415  139.9654  168.2398 C.ar    1  UNL1        0.0236
     15 C         138.7016  139.6112  166.9840 C.ar    1  UNL1        0.0690
     16 CL        137.8598  138.3707  166.9339 Cl      1  UNL1       -0.0813
     17 C         138.8036  140.4976  165.7781 C.ar    1  UNL1        0.0683
     18 CL        138.0636  140.1433  164.5223 Cl      1  UNL1       -0.0814
     19 C         140.9871  145.7461  158.6250 C.3     1  UNL1        0.1110
     20 N         140.8852  144.8598  159.8309 N.am    1  UNL1       -0.2979
     21 C         140.0531  145.2833  161.0048 C.2     1  UNL1        0.2637
     22 O         139.3229  146.5932  160.9729 O.2     1  UNL1       -0.2685
     23 H         141.3645  144.0001  159.8518 H       1  UNL1        0.1498
@<TRIPOS>BOND
     1    19    20    1
     2    20    21   am
     3    21    22    2
     4    21     1    1
     5     1     2   ar
     6     2     3   ar
     7     3     4   ar
     8     4    10    1
     9    10    11   ar
    10    11    12   ar
    11    12    13    1
    12    12    14   ar
    13    14    15   ar
    14    15    16    1
    15    15    17   ar
    16    17    18    1
    17     4     5   ar
    18     5     6    1
    19     5     7   ar
    20     7     1   ar
    21    17    10   ar
    22    20    23    1
    23     6     8    1
    24     6     9    1
@<TRIPOS>MOLECULE
*****
 23 24 0 0 0
SMALL
GASTEIGER

@<TRIPOS>ATOM
      1 C         142.7512  139.3676  163.5981 C.ar    1  UNL1        0.1358
      2 C         143.1920  138.6652  164.8480 C.ar    1  UNL1        0.0239
      3 C         142.7008  139.1348  166.1852 C.ar    1  UNL1        0.0045
      4 C         141.7689  140.3069  166.2725 C.ar    1  UNL1        0.0321
      5 C         141.3281  141.0093  165.0226 C.ar    1  UNL1        0.1254
      6 N         140.3961  142.1814  165.1099 N.pl3   1  UNL1       -0.3426
      7 N         141.8193  140.5396  163.6854 N.ar    1  UNL1       -0.2266
      8 H         140.0737  142.4897  165.9875 H       1  UNL1        0.1437
      9 H         140.1068  142.6424  164.2895 H       1  UNL1        0.1437
     10 C         141.2777  140.7765  167.6097 C.ar    1  UNL1        0.0149
     11 C         140.0200  140.2018  168.1909 C.ar    1  UNL1        0.0124
     12 C         139.5288  140.6715  169.5281 C.ar    1  UNL1        0.0586
     13 CL        138.2710  140.0968  170.1092 Cl      1  UNL1       -0.0822
     14 C         140.2953  141.7159  170.2842 C.ar    1  UNL1        0.0236
     15 C         141.5530  142.2906  169.7030 C.ar    1  UNL1        0.0690
     16 CL        142.3197  143.3350  170.4591 Cl      1  UNL1       -0.0813
     17 C         142.0442  141.8209  168.3658 C.ar    1  UNL1        0.0683
     18 CL        143.3020  142.3956  167.7846 Cl      1  UNL1       -0.0814
     19 C         143.0967  137.2402  160.2656 C.3     1  UNL1        0.1110
     20 N         142.6056  137.7099  161.6029 N.am    1  UNL1       -0.2979
     21 C         143.2424  138.8979  162.2608 C.2     1  UNL1        0.2637
     22 O         144.3705  139.6162  161.5816 O.2     1  UNL1       -0.2685
     23 H         141.8651  137.2384  162.0487 H       1  UNL1        0.1498
@<TRIPOS>BOND
     1    19    20    1
     2    20    21   am
     3    21    22    2
     4    21     1    1
     5     1     2   ar
     6     2     3   ar
     7     3     4   ar
     8     4    10    1
     9    10    11   ar
    10    11    12   ar
    11    12    13    1
    12    12    14   ar
    13    14    15   ar
    14    15    16    1
    15    15    17   ar
    16    17    18    1
    17     4     5   ar
    18     5     6    1
    19     5     7   ar
    20     7     1   ar
    21    17    10   ar
    22    20    23    1
    23     6     8    1
    24     6     9    1
@<TRIPOS>MOLECULE
*****
 23 24 0 0 0
SMALL
GASTEIGER

@<TRIPOS>ATOM
      1 C         142.4223  139.3361  169.3355 C.ar    1  UNL1        0.1358
      2 C         141.0215  139.7609  169.6628 C.ar    1  UNL1        0.0239
      3 C         140.1796  140.4359  168.6209 C.ar    1  UNL1        0.0045
      4 C         140.7386  140.6861  167.2516 C.ar    1  UNL1        0.0321
      5 C         142.1394  140.2613  166.9243 C.ar    1  UNL1        0.1254
      6 N         142.6984  140.5114  165.5550 N.pl3   1  UNL1       -0.3426
      7 N         142.9813  139.5863  167.9662 N.ar    1  UNL1       -0.2266
      8 H         142.1459  140.9545  164.8711 H       1  UNL1        0.1437
      9 H         143.6179  140.2326  165.3401 H       1  UNL1        0.1437
     10 C         139.8967  141.3611  166.2097 C.ar    1  UNL1        0.0149
     11 C         139.8404  142.8586  166.1456 C.ar    1  UNL1        0.0124
     12 C         138.9985  143.5336  165.1037 C.ar    1  UNL1        0.0586
     13 CL        138.9423  145.0312  165.0396 Cl      1  UNL1       -0.0822
     14 C         138.2130  142.7111  164.1258 C.ar    1  UNL1        0.0236
     15 C         138.2693  141.2135  164.1899 C.ar    1  UNL1        0.0690
     16 CL        137.4837  140.3909  163.2120 Cl      1  UNL1       -0.0813
     17 C         139.1112  140.5385  165.2318 C.ar    1  UNL1        0.0683
     18 CL        139.1675  139.0409  165.2958 Cl      1  UNL1       -0.0814
     19 C         144.2354  136.4917  171.4265 C.3     1  UNL1        0.1110
     20 N         143.3935  137.1667  170.3846 N.am    1  UNL1       -0.2979
     21 C         143.2642  138.6611  170.3774 C.2     1  UNL1        0.2637
     22 O         143.9768  139.4805  171.4122 O.2     1  UNL1       -0.2685
     23 H         142.9259  136.6289  169.7054 H       1  UNL1        0.1498
@<TRIPOS>BOND
     1    19    20    1
     2    20    21   am
     3    21    22    2
     4    21     1    1
     5     1     2   ar
     6     2     3   ar
     7     3     4   ar
     8     4    10    1
     9    10    11   ar
    10    11    12   ar
    11    12    13    1
    12    12    14   ar
    13    14    15   ar
    14    15    16    1
    15    15    17   ar
    16    17    18    1
    17     4     5   ar
    18     5     6    1
    19     5     7   ar
    20     7     1   ar
    21    17    10   ar
    22    20    23    1
    23     6     8    1
    24     6     9    1
@<TRIPOS>MOLECULE
*****
 23 24 0 0 0
SMALL
GASTEIGER

@<TRIPOS>ATOM
      1 C         139.5486  140.5061  169.0836 C.ar    1  UNL1        0.1358
      2 C         140.2795  141.7881  169.3526 C.ar    1  UNL1        0.0239
      3 C         141.0152  142.4791  168.2429 C.ar    1  UNL1        0.0045
      4 C         141.0199  141.8881  166.8643 C.ar    1  UNL1        0.0321
      5 C         140.2891  140.6061  166.5953 C.ar    1  UNL1        0.1254
      6 N         140.2938  140.0151  165.2166 N.pl3   1  UNL1       -0.3426
      7 N         139.5534  139.9152  167.7050 N.ar    1  UNL1       -0.2266
      8 H         140.7767  140.4685  164.4883 H       1  UNL1        0.1437
      9 H         139.8141  139.1737  165.0401 H       1  UNL1        0.1437
     10 C         141.7556  142.5790  165.7546 C.ar    1  UNL1        0.0149
     11 C         143.1786  142.2111  165.4550 C.ar    1  UNL1        0.0124
     12 C         143.9142  142.9021  164.3453 C.ar    1  UNL1        0.0586
     13 CL        145.3372  142.5341  164.0458 Cl      1  UNL1       -0.0822
     14 C         143.2269  143.9610  163.5353 C.ar    1  UNL1        0.0236
     15 C         141.8040  144.3289  163.8348 C.ar    1  UNL1        0.0690
     16 CL        141.1166  145.3879  163.0247 Cl      1  UNL1       -0.0813
     17 C         141.0683  143.6379  164.9445 C.ar    1  UNL1        0.0683
     18 CL        139.6453  144.0059  165.2441 Cl      1  UNL1       -0.0814
     19 C         136.6289  138.7714  171.1369 C.3     1  UNL1        0.1110
     20 N         137.3646  139.4623  170.0272 N.am    1  UNL1       -0.2979
     21 C         138.8130  139.8152  170.1933 C.2     1  UNL1        0.2637
     22 O         139.5257  139.4770  171.4691 O.2     1  UNL1       -0.2685
     23 H         136.8968  139.6843  169.1899 H       1  UNL1        0.1498
@<TRIPOS>BOND
     1    19    20    1
     2    20    21   am
     3    21    22    2
     4    21     1    1
     5     1     2   ar
     6     2     3   ar
     7     3     4   ar
     8     4    10    1
     9    10    11   ar
    10    11    12   ar
    11    12    13    1
    12    12    14   ar
    13    14    15   ar
    14    15    16    1
    15    15    17   ar
    16    17    18    1
    17     4     5   ar
    18     5     6    1
    19     5     7   ar
    20     7     1   ar
    21    17    10   ar
    22    20    23    1
    23     6     8    1
    24     6     9    1
@<TRIPOS>MOLECULE
*****
 23 24 0 0 0
SMALL
GASTEIGER

@<TRIPOS>ATOM
      1 C         139.2915  140.5395  169.2105 C.ar    1  UNL1        0.1358
      2 C         139.8900  141.8934  169.4526 C.ar    1  UNL1        0.0239
      3 C         140.4531  142.6804  168.3064 C.ar    1  UNL1        0.0045
      4 C         140.4176  142.1134  166.9182 C.ar    1  UNL1        0.0321
      5 C         139.8191  140.7595  166.6761 C.ar    1  UNL1        0.1254
      6 N         139.7837  140.1924  165.2878 N.pl3   1  UNL1       -0.3426
      7 N         139.2561  139.9725  167.8222 N.ar    1  UNL1       -0.2266
      8 H         140.1532  140.7089  164.5355 H       1  UNL1        0.1437
      9 H         139.3909  139.3038  165.1289 H       1  UNL1        0.1437
     10 C         140.9807  142.9003  165.7720 C.ar    1  UNL1        0.0149
     11 C         140.0821  143.7767  164.9508 C.ar    1  UNL1        0.0124
     12 C         140.6452  144.5637  163.8046 C.ar    1  UNL1        0.0586
     13 CL        139.7466  145.4401  162.9833 Cl      1  UNL1       -0.0822
     14 C         142.1068  144.4742  163.4797 C.ar    1  UNL1        0.0236
     15 C         143.0054  143.5979  164.3010 C.ar    1  UNL1        0.0690
     16 CL        144.4671  143.5084  163.9761 Cl      1  UNL1       -0.0813
     17 C         142.4423  142.8109  165.4471 C.ar    1  UNL1        0.0683
     18 CL        143.3410  141.9345  166.2684 Cl      1  UNL1       -0.0814
     19 C         136.7046  138.6264  171.5338 C.3     1  UNL1        0.1110
     20 N         137.2676  139.4134  170.3876 N.am    1  UNL1       -0.2979
     21 C         138.7284  139.7525  170.3566 C.2     1  UNL1        0.2637
     22 O         139.6261  139.3048  171.4717 O.2     1  UNL1       -0.2685
     23 H         136.6784  139.7072  169.6557 H       1  UNL1        0.1498
@<TRIPOS>BOND
     1    19    20    1
     2    20    21   am
     3    21    22    2
     4    21     1    1
     5     1     2   ar
     6     2     3   ar
     7     3     4   ar
     8     4    10    1
     9    10    11   ar
    10    11    12   ar
    11    12    13    1
    12    12    14   ar
    13    14    15   ar
    14    15    16    1
    15    15    17   ar
    16    17    18    1
    17     4     5   ar
    18     5     6    1
    19     5     7   ar
    20     7     1   ar
    21    17    10   ar
    22    20    23    1
    23     6     8    1
    24     6     9    1
@<TRIPOS>MOLECULE
*****
 23 24 0 0 0
SMALL
GASTEIGER

@<TRIPOS>ATOM
      1 C         143.1940  142.5188  163.4579 C.ar    1  UNL1        0.1358
      2 C         143.9681  142.9691  164.6612 C.ar    1  UNL1        0.0239
      3 C         143.5684  142.5002  166.0288 C.ar    1  UNL1        0.0045
      4 C         142.3945  141.5810  166.1931 C.ar    1  UNL1        0.0321
      5 C         141.6203  141.1308  164.9899 C.ar    1  UNL1        0.1254
      6 N         140.4463  140.2116  165.1542 N.pl3   1  UNL1       -0.3426
      7 N         142.0201  141.5997  163.6222 N.ar    1  UNL1       -0.2266
      8 H         140.1839  139.9038  166.0518 H       1  UNL1        0.1437
      9 H         139.9382  139.9161  164.3644 H       1  UNL1        0.1437
     10 C         141.9947  141.1122  167.5607 C.ar    1  UNL1        0.0149
     11 C         142.6346  139.8910  168.1517 C.ar    1  UNL1        0.0124
     12 C         142.2349  139.4221  169.5193 C.ar    1  UNL1        0.0586
     13 CL        142.8748  138.2009  170.1103 Cl      1  UNL1       -0.0822
     14 C         141.1952  140.1744  170.2959 C.ar    1  UNL1        0.0236
     15 C         140.5553  141.3955  169.7050 C.ar    1  UNL1        0.0690
     16 CL        139.5156  142.1479  170.4816 Cl      1  UNL1       -0.0813
     17 C         140.9551  141.8644  168.3373 C.ar    1  UNL1        0.0683
     18 CL        140.3151  143.0856  167.7464 Cl      1  UNL1       -0.0814
     19 C         144.6659  142.5107  159.7723 C.3     1  UNL1        0.1110
     20 N         144.2661  142.0418  161.1399 N.am    1  UNL1       -0.2979
     21 C         143.5937  142.9877  162.0903 C.2     1  UNL1        0.2637
     22 O         143.3211  144.4024  161.6730 O.2     1  UNL1       -0.2685
     23 H         144.4450  141.1133  161.4138 H       1  UNL1        0.1498
@<TRIPOS>BOND
     1    19    20    1
     2    20    21   am
     3    21    22    2
     4    21     1    1
     5     1     2   ar
     6     2     3   ar
     7     3     4   ar
     8     4    10    1
     9    10    11   ar
    10    11    12   ar
    11    12    13    1
    12    12    14   ar
    13    14    15   ar
    14    15    16    1
    15    15    17   ar
    16    17    18    1
    17     4     5   ar
    18     5     6    1
    19     5     7   ar
    20     7     1   ar
    21    17    10   ar
    22    20    23    1
    23     6     8    1
    24     6     9    1
@<TRIPOS>MOLECULE
*****
 23 24 0 0 0
SMALL
GASTEIGER

@<TRIPOS>ATOM
      1 C         143.0207  139.5808  163.7237 C.ar    1  UNL1        0.1358
      2 C         143.3230  138.7666  164.9466 C.ar    1  UNL1        0.0239
      3 C         142.8955  139.2566  166.2984 C.ar    1  UNL1        0.0045
      4 C         142.1659  140.5608  166.4272 C.ar    1  UNL1        0.0321
      5 C         141.8636  141.3750  165.2042 C.ar    1  UNL1        0.1254
      6 N         141.1339  142.6793  165.3330 N.pl3   1  UNL1       -0.3426
      7 N         142.2911  140.8850  163.8525 N.ar    1  UNL1       -0.2266
      8 H         140.8534  143.0009  166.2202 H       1  UNL1        0.1437
      9 H         140.9356  143.2137  164.5303 H       1  UNL1        0.1437
     10 C         141.7384  141.0507  167.7789 C.ar    1  UNL1        0.0149
     11 C         142.6413  141.9492  168.5710 C.ar    1  UNL1        0.0124
     12 C         142.2139  142.4391  169.9228 C.ar    1  UNL1        0.0586
     13 CL        143.1169  143.3376  170.7149 Cl      1  UNL1       -0.0822
     14 C         140.8835  142.0307  170.4824 C.ar    1  UNL1        0.0236
     15 C         139.9806  141.1322  169.6903 C.ar    1  UNL1        0.0690
     16 CL        138.6502  140.7237  170.2499 Cl      1  UNL1       -0.0813
     17 C         140.4080  140.6423  168.3385 C.ar    1  UNL1        0.0683
     18 CL        139.5050  139.7438  167.5464 Cl      1  UNL1       -0.0814
     19 C         143.3155  137.3208  160.4748 C.3     1  UNL1        0.1110
     20 N         142.8880  137.8108  161.8265 N.am    1  UNL1       -0.2979
     21 C         143.4482  139.0909  162.3719 C.2     1  UNL1        0.2637
     22 O         144.4358  139.8810  161.5655 O.2     1  UNL1       -0.2685
     23 H         142.2398  137.2921  162.3558 H       1  UNL1        0.1498
@<TRIPOS>BOND
     1    19    20    1
     2    20    21   am
     3    21    22    2
     4    21     1    1
     5     1     2   ar
     6     2     3   ar
     7     3     4   ar
     8     4    10    1
     9    10    11   ar
    10    11    12   ar
    11    12    13    1
    12    12    14   ar
    13    14    15   ar
    14    15    16    1
    15    15    17   ar
    16    17    18    1
    17     4     5   ar
    18     5     6    1
    19     5     7   ar
    20     7     1   ar
    21    17    10   ar
    22    20    23    1
    23     6     8    1
    24     6     9    1
@<TRIPOS>MOLECULE
*****
 23 24 0 0 0
SMALL
GASTEIGER

@<TRIPOS>ATOM
      1 C         139.6458  139.5285  163.8351 C.ar    1  UNL1        0.1358
      2 C         140.7966  140.4895  163.8777 C.ar    1  UNL1        0.0239
      3 C         141.2472  141.0624  165.1888 C.ar    1  UNL1        0.0045
      4 C         140.5470  140.6741  166.4572 C.ar    1  UNL1        0.0321
      5 C         139.3962  139.7130  166.4145 C.ar    1  UNL1        0.1254
      6 N         138.6959  139.3247  167.6830 N.pl3   1  UNL1       -0.3426
      7 N         138.9456  139.1402  165.1035 N.ar    1  UNL1       -0.2266
      8 H         138.9916  139.7006  168.5435 H       1  UNL1        0.1437
      9 H         137.9406  138.6939  167.6550 H       1  UNL1        0.1437
     10 C         140.9976  141.2469  167.7682 C.ar    1  UNL1        0.0149
     11 C         140.4472  142.5593  168.2421 C.ar    1  UNL1        0.0124
     12 C         140.8978  143.1321  169.5531 C.ar    1  UNL1        0.0586
     13 CL        140.3473  144.4446  170.0270 Cl      1  UNL1       -0.0822
     14 C         141.8989  142.3926  170.3903 C.ar    1  UNL1        0.0236
     15 C         142.4493  141.0802  169.9164 C.ar    1  UNL1        0.0690
     16 CL        143.4504  140.3405  170.7536 Cl      1  UNL1       -0.0813
     17 C         141.9987  140.5074  168.6054 C.ar    1  UNL1        0.0683
     18 CL        142.5492  139.1949  168.1315 Cl      1  UNL1       -0.0814
     19 C         139.0705  139.0929  159.9326 C.3     1  UNL1        0.1110
     20 N         139.5212  139.6657  161.2437 N.am    1  UNL1       -0.2979
     21 C         139.1951  138.9556  162.5241 C.2     1  UNL1        0.2637
     22 O         138.4185  137.6727  162.4934 O.2     1  UNL1       -0.2685
     23 H         140.0309  140.5077  161.2638 H       1  UNL1        0.1498
@<TRIPOS>BOND
     1    19    20    1
     2    20    21   am
     3    21    22    2
     4    21     1    1
     5     1     2   ar
     6     2     3   ar
     7     3     4   ar
     8     4    10    1
     9    10    11   ar
    10    11    12   ar
    11    12    13    1
    12    12    14   ar
    13    14    15   ar
    14    15    16    1
    15    15    17   ar
    16    17    18    1
    17     4     5   ar
    18     5     6    1
    19     5     7   ar
    20     7     1   ar
    21    17    10   ar
    22    20    23    1
    23     6     8    1
    24     6     9    1
@<TRIPOS>MOLECULE
*****
 23 24 0 0 0
SMALL
GASTEIGER

@<TRIPOS>ATOM
      1 C         142.4209  139.1590  169.1643 C.ar    1  UNL1        0.1358
      2 C         141.0359  139.6480  169.4683 C.ar    1  UNL1        0.0239
      3 C         140.1772  140.1999  168.3691 C.ar    1  UNL1        0.0045
      4 C         140.7036  140.2626  166.9659 C.ar    1  UNL1        0.0321
      5 C         142.0886  139.7735  166.6619 C.ar    1  UNL1        0.1254
      6 N         142.6151  139.8362  165.2587 N.pl3   1  UNL1       -0.3426
      7 N         142.9473  139.2217  167.7611 N.ar    1  UNL1       -0.2266
      8 H         142.0516  140.1984  164.5373 H       1  UNL1        0.1437
      9 H         143.5242  139.5152  165.0592 H       1  UNL1        0.1437
     10 C         139.8450  140.8144  165.8667 C.ar    1  UNL1        0.0149
     11 C         139.2420  139.8905  164.8505 C.ar    1  UNL1        0.0124
     12 C         138.3833  140.4423  163.7513 C.ar    1  UNL1        0.0586
     13 CL        137.7804  139.5183  162.7350 Cl      1  UNL1       -0.0822
     14 C         138.1277  141.9180  163.6683 C.ar    1  UNL1        0.0236
     15 C         138.7307  142.8419  164.6846 C.ar    1  UNL1        0.0690
     16 CL        138.4750  144.3177  164.6016 Cl      1  UNL1       -0.0813
     17 C         139.5893  142.2901  165.7838 C.ar    1  UNL1        0.0683
     18 CL        140.1923  143.2140  166.8000 Cl      1  UNL1       -0.0814
     19 C         144.4208  136.5836  171.4266 C.3     1  UNL1        0.1110
     20 N         143.5622  137.1355  170.3274 N.am    1  UNL1       -0.2979
     21 C         143.2796  138.6072  170.2635 C.2     1  UNL1        0.2637
     22 O         143.8556  139.5271  171.2988 O.2     1  UNL1       -0.2685
     23 H         143.1841  136.5317  169.6479 H       1  UNL1        0.1498
@<TRIPOS>BOND
     1    19    20    1
     2    20    21   am
     3    21    22    2
     4    21     1    1
     5     1     2   ar
     6     2     3   ar
     7     3     4   ar
     8     4    10    1
     9    10    11   ar
    10    11    12   ar
    11    12    13    1
    12    12    14   ar
    13    14    15   ar
    14    15    16    1
    15    15    17   ar
    16    17    18    1
    17     4     5   ar
    18     5     6    1
    19     5     7   ar
    20     7     1   ar
    21    17    10   ar
    22    20    23    1
    23     6     8    1
    24     6     9    1
