@<TRIPOS>MOLECULE
*****
 45 49 0 0 0
SMALL
GASTEIGER

@<TRIPOS>ATOM
      1 C         139.1702  139.3015  166.2755 C.ar    1  UNL1        0.2006
      2 N         139.8599  140.5686  165.8651 N.ar    1  UNL1       -0.1999
      3 C         140.2214  141.5944  166.8982 C.ar    1  UNL1        0.1391
      4 C         139.8930  141.3529  168.3417 C.ar    1  UNL1        0.0827
      5 C         140.1244  142.1751  169.5748 C.ar    1  UNL1        0.0866
      6 C         140.7863  143.5201  169.6263 C.3     1  UNL1        0.0542
      7 N         139.5776  141.4160  170.7473 N.ar    1  UNL1       -0.1508
      8 N         139.0083  140.1247  170.2389 N.ar    1  UNL1       -0.1305
      9 C         139.2032  140.0857  168.7522 C.ar    1  UNL1        0.1679
     10 N         138.8418  139.0600  167.7191 N.ar    1  UNL1       -0.3104
     11 H         138.3891  138.2283  167.9885 H       1  UNL1        0.1701
     12 N         138.8087  138.2757  165.2424 N.pl3   1  UNL1       -0.2816
     13 H         138.3447  137.4497  165.5101 H       1  UNL1        0.1551
     14 C         137.4448  139.8702  160.4887 C.3     1  UNL1        0.0307
     15 C         138.4722  139.3058  161.4245 C.ar    1  UNL1       -0.0244
     16 C         138.1268  139.0730  162.8655 C.ar    1  UNL1        0.0132
     17 C         139.1542  138.5086  163.8015 C.ar    1  UNL1        0.0845
     18 C         140.5271  138.1771  163.2964 C.ar    1  UNL1        0.1513
     19 C         140.8726  138.4099  161.8553 C.ar    1  UNL1        0.0336
     20 C         139.8453  138.9743  160.9195 C.ar    1  UNL1       -0.0233
     21 C         140.1908  139.2071  159.4785 C.3     1  UNL1        0.0249
     22 C         139.8799  138.1570  158.4536 C.3     1  UNL1        0.0217
     23 C         140.2254  138.3898  157.0126 C.3     1  UNL1        0.0725
     24 N         140.8817  139.6728  156.5966 N.3     1  UNL1       -0.2715
     25 C         141.2273  139.9058  155.1556 C.3     1  UNL1        0.0896
     26 C         141.1926  140.7230  157.6216 C.3     1  UNL1        0.0725
     27 C         140.8471  140.4901  159.0625 C.3     1  UNL1        0.0217
     28 O         141.5545  137.6127  164.2322 O.3     1  UNL1       -0.4779
     29 C         142.6855  138.4734  164.7117 C.3     1  UNL1        0.1662
     30 C         142.8462  138.7533  166.1766 C.3     1  UNL1        0.0472
     31 C         143.6559  139.0542  163.7263 C.3     1  UNL1        0.0472
     32 N         140.9112  142.8615  166.4877 N.pl3   1  UNL1       -0.2967
     33 H         140.6338  143.7217  166.8780 H       1  UNL1        0.1536
     34 C         142.0237  142.8181  165.4825 C.ar    1  UNL1        0.0667
     35 C         143.4320  142.5651  165.9327 C.ar    1  UNL1        0.0159
     36 C         144.5444  142.5217  164.9274 C.ar    1  UNL1        0.0014
     37 C         144.2485  142.7312  163.4719 C.ar    1  UNL1        0.0014
     38 C         142.8402  142.9842  163.0216 C.ar    1  UNL1        0.0196
     39 C         141.7278  143.0276  164.0269 C.ar    1  UNL1        0.1189
     40 S         140.3195  143.2805  163.5767 S.O2    1  UNL1        0.0082
     41 O         140.3235  141.9781  162.8326 O.2     1  UNL1       -0.1686
     42 O         140.3155  144.5829  164.3208 O.2     1  UNL1       -0.1686
     43 C         138.9112  143.5335  163.1264 C.3     1  UNL1        0.1340
     44 C         138.4912  143.1651  161.7344 C.3     1  UNL1        0.0257
     45 C         137.9229  144.1549  164.0684 C.3     1  UNL1        0.0257
@<TRIPOS>BOND
     1    14    15    1
     2    15    16   ar
     3    16    17   ar
     4    17    12    1
     5    12     1    1
     6     1     2   ar
     7     2     3   ar
     8     3    32    1
     9    32    34    1
    10    34    35   ar
    11    35    36   ar
    12    36    37   ar
    13    37    38   ar
    14    38    39   ar
    15    39    40    1
    16    40    41    2
    17    40    42    2
    18    40    43    1
    19    43    44    1
    20    43    45    1
    21     3     4   ar
    22     4     5   ar
    23     5     6    1
    24     5     7   ar
    25     7     8   ar
    26     8     9   ar
    27     9    10   ar
    28    17    18   ar
    29    18    28    1
    30    28    29    1
    31    29    30    1
    32    29    31    1
    33    18    19   ar
    34    19    20   ar
    35    20    21    1
    36    21    22    1
    37    22    23    1
    38    23    24    1
    39    24    25    1
    40    24    26    1
    41    26    27    1
    42    20    15   ar
    43    27    21    1
    44    10     1   ar
    45    39    34   ar
    46     9     4    1
    47    12    13    1
    48    32    33    1
    49    10    11    1
@<TRIPOS>MOLECULE
*****
 45 49 0 0 0
SMALL
GASTEIGER

@<TRIPOS>ATOM
      1 C         142.4180  138.3793  161.1113 C.ar    1  UNL1        0.2006
      2 N         142.8946  139.7936  161.2609 N.ar    1  UNL1       -0.1999
      3 C         143.4642  140.5220  160.0798 C.ar    1  UNL1        0.1391
      4 C         143.5573  139.8360  158.7491 C.ar    1  UNL1        0.0827
      5 C         144.0684  140.2964  157.4162 C.ar    1  UNL1        0.0866
      6 C         144.6399  141.6491  157.1103 C.3     1  UNL1        0.0542
      7 N         143.9077  139.1665  156.4427 N.ar    1  UNL1       -0.1508
      8 N         143.2973  138.0078  157.1741 N.ar    1  UNL1       -0.1305
      9 C         143.0807  138.4216  158.5995 C.ar    1  UNL1        0.1679
     10 N         142.5110  137.6932  159.7806 N.ar    1  UNL1       -0.3104
     11 H         142.1982  136.7649  159.6824 H       1  UNL1        0.1701
     12 N         141.8483  137.6508  162.2924 N.pl3   1  UNL1       -0.2816
     13 H         141.6939  136.6797  162.2441 H       1  UNL1        0.1551
     14 C         143.0405  139.0510  167.1523 C.3     1  UNL1        0.0307
     15 C         142.1100  139.1022  165.9769 C.ar    1  UNL1       -0.0244
     16 C         142.4444  138.3509  164.7224 C.ar    1  UNL1        0.0132
     17 C         141.5139  138.4020  163.5469 C.ar    1  UNL1        0.0845
     18 C         140.2491  139.2045  163.6260 C.ar    1  UNL1        0.1513
     19 C         139.9147  139.9558  164.8805 C.ar    1  UNL1        0.0336
     20 C         140.8451  139.9046  166.0559 C.ar    1  UNL1       -0.0233
     21 C         140.5107  140.6558  167.3104 C.3     1  UNL1        0.0249
     22 C         139.7444  139.9792  168.4081 C.3     1  UNL1        0.0217
     23 C         139.4101  140.7305  169.6626 C.3     1  UNL1        0.0725
     24 N         139.8420  142.1583  169.8194 N.3     1  UNL1       -0.2715
     25 C         139.5077  142.9097  171.0740 C.3     1  UNL1        0.0896
     26 C         140.6083  142.8350  168.7217 C.3     1  UNL1        0.0725
     27 C         140.9427  142.0837  167.4672 C.3     1  UNL1        0.0217
     28 O         139.3186  139.2556  162.4505 O.3     1  UNL1       -0.4779
     29 C         138.8373  140.5783  161.9320 C.3     1  UNL1        0.1662
     30 C         139.6933  141.3705  160.9888 C.3     1  UNL1        0.0472
     31 C         137.5001  141.1087  162.3567 C.3     1  UNL1        0.0472
     32 N         143.9408  141.9364  160.2295 N.pl3   1  UNL1       -0.2967
     33 H         144.9023  142.1405  160.1730 H       1  UNL1        0.1536
     34 C         142.9525  143.0399  160.4651 C.ar    1  UNL1        0.0667
     35 C         142.2268  143.6570  159.3064 C.ar    1  UNL1        0.0159
     36 C         141.2385  144.7604  159.5422 C.ar    1  UNL1        0.0014
     37 C         140.9759  145.2468  160.9366 C.ar    1  UNL1        0.0014
     38 C         141.7016  144.6298  162.0953 C.ar    1  UNL1        0.0196
     39 C         142.6899  143.5263  161.8595 C.ar    1  UNL1        0.1189
     40 S         143.4156  142.9092  163.0182 S.O2    1  UNL1        0.0082
     41 O         142.1391  142.2687  163.4766 O.2     1  UNL1       -0.1686
     42 O         144.6922  143.5498  162.5598 O.2     1  UNL1       -0.1686
     43 C         144.1413  142.2922  164.1769 C.3     1  UNL1        0.1340
     44 C         143.9584  142.8476  165.5582 C.3     1  UNL1        0.0257
     45 C         145.0500  141.1196  163.9543 C.3     1  UNL1        0.0257
@<TRIPOS>BOND
     1    14    15    1
     2    15    16   ar
     3    16    17   ar
     4    17    12    1
     5    12     1    1
     6     1     2   ar
     7     2     3   ar
     8     3    32    1
     9    32    34    1
    10    34    35   ar
    11    35    36   ar
    12    36    37   ar
    13    37    38   ar
    14    38    39   ar
    15    39    40    1
    16    40    41    2
    17    40    42    2
    18    40    43    1
    19    43    44    1
    20    43    45    1
    21     3     4   ar
    22     4     5   ar
    23     5     6    1
    24     5     7   ar
    25     7     8   ar
    26     8     9   ar
    27     9    10   ar
    28    17    18   ar
    29    18    28    1
    30    28    29    1
    31    29    30    1
    32    29    31    1
    33    18    19   ar
    34    19    20   ar
    35    20    21    1
    36    21    22    1
    37    22    23    1
    38    23    24    1
    39    24    25    1
    40    24    26    1
    41    26    27    1
    42    20    15   ar
    43    27    21    1
    44    10     1   ar
    45    39    34   ar
    46     9     4    1
    47    12    13    1
    48    32    33    1
    49    10    11    1
@<TRIPOS>MOLECULE
*****
 45 49 0 0 0
SMALL
GASTEIGER

@<TRIPOS>ATOM
      1 C         143.4372  142.9652  165.5754 C.ar    1  UNL1        0.2006
      2 N         142.2799  142.0424  165.3331 N.ar    1  UNL1       -0.1999
      3 C         141.6653  141.2934  166.4783 C.ar    1  UNL1        0.1391
      4 C         142.2081  141.4673  167.8657 C.ar    1  UNL1        0.0827
      5 C         141.8111  140.8664  169.1815 C.ar    1  UNL1        0.0866
      6 C         140.6975  139.8861  169.4029 C.3     1  UNL1        0.0542
      7 N         142.7231  141.4179  170.2370 N.ar    1  UNL1       -0.1508
      8 N         143.6838  142.3596  169.5736 N.ar    1  UNL1       -0.1305
      9 C         143.3655  142.3902  168.1080 C.ar    1  UNL1        0.1679
     10 N         143.9801  143.1392  166.9629 N.ar    1  UNL1       -0.3104
     11 H         144.7397  143.7449  167.1219 H       1  UNL1        0.1701
     12 N         144.0519  143.7142  164.4303 N.pl3   1  UNL1       -0.2816
     13 H         144.9526  144.1010  164.5218 H       1  UNL1        0.1551
     14 C         140.1838  145.8903  161.7278 C.3     1  UNL1        0.0307
     15 C         141.3600  144.9619  161.7944 C.ar    1  UNL1       -0.0244
     16 C         142.1178  144.8023  163.0790 C.ar    1  UNL1        0.0132
     17 C         143.2941  143.8738  163.1456 C.ar    1  UNL1        0.0845
     18 C         143.7126  143.1050  161.9276 C.ar    1  UNL1        0.1513
     19 C         142.9548  143.2646  160.6428 C.ar    1  UNL1        0.0336
     20 C         141.7786  144.1930  160.5763 C.ar    1  UNL1       -0.0233
     21 C         141.0209  144.3526  159.2916 C.3     1  UNL1        0.0249
     22 C         141.3395  145.4919  158.3695 C.3     1  UNL1        0.0217
     23 C         140.5818  145.6515  157.0848 C.3     1  UNL1        0.0725
     24 N         139.5053  144.6718  156.7223 N.3     1  UNL1       -0.2715
     25 C         138.7475  144.8313  155.4377 C.3     1  UNL1        0.0896
     26 C         139.1867  143.5324  157.6445 C.3     1  UNL1        0.0725
     27 C         139.9444  143.3728  158.9291 C.3     1  UNL1        0.0217
     28 O         144.8889  142.1766  161.9941 O.3     1  UNL1       -0.4779
     29 C         144.7020  140.7609  162.4535 C.3     1  UNL1        0.1662
     30 C         145.1898  140.3415  163.8085 C.3     1  UNL1        0.0472
     31 C         144.0272  139.7647  161.5578 C.3     1  UNL1        0.0472
     32 N         140.5078  140.3705  166.2359 N.pl3   1  UNL1       -0.2967
     33 H         139.7456  140.3628  166.8589 H       1  UNL1        0.1536
     34 C         140.5118  139.4595  165.0443 C.ar    1  UNL1        0.0667
     35 C         141.1528  138.1066  165.1366 C.ar    1  UNL1        0.0159
     36 C         141.1567  137.1956  163.9449 C.ar    1  UNL1        0.0014
     37 C         140.5196  137.6377  162.6609 C.ar    1  UNL1        0.0014
     38 C         139.8785  138.9906  162.5686 C.ar    1  UNL1        0.0196
     39 C         139.8746  139.9015  163.7603 C.ar    1  UNL1        0.1189
     40 S         139.2335  141.2545  163.6680 S.O2    1  UNL1        0.0082
     41 O         138.2090  140.8382  164.6813 O.2     1  UNL1       -0.1686
     42 O         140.2581  141.6708  162.6546 O.2     1  UNL1       -0.1686
     43 C         138.5925  142.6075  163.5757 C.3     1  UNL1        0.1340
     44 C         137.8838  143.0175  162.3189 C.3     1  UNL1        0.0257
     45 C         138.6601  143.5504  164.7403 C.3     1  UNL1        0.0257
@<TRIPOS>BOND
     1    14    15    1
     2    15    16   ar
     3    16    17   ar
     4    17    12    1
     5    12     1    1
     6     1     2   ar
     7     2     3   ar
     8     3    32    1
     9    32    34    1
    10    34    35   ar
    11    35    36   ar
    12    36    37   ar
    13    37    38   ar
    14    38    39   ar
    15    39    40    1
    16    40    41    2
    17    40    42    2
    18    40    43    1
    19    43    44    1
    20    43    45    1
    21     3     4   ar
    22     4     5   ar
    23     5     6    1
    24     5     7   ar
    25     7     8   ar
    26     8     9   ar
    27     9    10   ar
    28    17    18   ar
    29    18    28    1
    30    28    29    1
    31    29    30    1
    32    29    31    1
    33    18    19   ar
    34    19    20   ar
    35    20    21    1
    36    21    22    1
    37    22    23    1
    38    23    24    1
    39    24    25    1
    40    24    26    1
    41    26    27    1
    42    20    15   ar
    43    27    21    1
    44    10     1   ar
    45    39    34   ar
    46     9     4    1
    47    12    13    1
    48    32    33    1
    49    10    11    1
@<TRIPOS>MOLECULE
*****
 45 49 0 0 0
SMALL
GASTEIGER

@<TRIPOS>ATOM
      1 C         139.1646  139.2630  166.0654 C.ar    1  UNL1        0.2006
      2 N         139.7472  140.5832  165.6564 N.ar    1  UNL1       -0.1999
      3 C         140.0990  141.6031  166.6987 C.ar    1  UNL1        0.1391
      4 C         139.8680  141.3025  168.1500 C.ar    1  UNL1        0.0827
      5 C         140.1144  142.1054  169.3928 C.ar    1  UNL1        0.0866
      6 C         140.6901  143.4894  169.4487 C.3     1  UNL1        0.0542
      7 N         139.6840  141.2813  170.5699 N.ar    1  UNL1       -0.1508
      8 N         139.1716  139.9691  170.0546 N.ar    1  UNL1       -0.1305
      9 C         139.2853  139.9822  168.5590 C.ar    1  UNL1        0.1679
     10 N         138.9336  138.9624  167.5167 N.ar    1  UNL1       -0.3104
     11 H         138.5512  138.0959  167.7851 H       1  UNL1        0.1701
     12 N         138.8128  138.2432  165.0231 N.pl3   1  UNL1       -0.2816
     13 H         138.3467  137.4155  165.2818 H       1  UNL1        0.1551
     14 C         137.5091  139.9168  160.2797 C.3     1  UNL1        0.0307
     15 C         138.5194  139.3214  161.2149 C.ar    1  UNL1       -0.0244
     16 C         138.1610  139.0800  162.6513 C.ar    1  UNL1        0.0132
     17 C         139.1712  138.4846  163.5867 C.ar    1  UNL1        0.0845
     18 C         140.5400  138.1305  163.0856 C.ar    1  UNL1        0.1513
     19 C         140.8985  138.3719  161.6491 C.ar    1  UNL1        0.0336
     20 C         139.8882  138.9673  160.7138 C.ar    1  UNL1       -0.0233
     21 C         140.2467  139.2087  159.2774 C.3     1  UNL1        0.0249
     22 C         140.9319  140.4822  158.8792 C.3     1  UNL1        0.0217
     23 C         141.2904  140.7235  157.4428 C.3     1  UNL1        0.0725
     24 N         140.9635  139.6914  156.4047 N.3     1  UNL1       -0.2715
     25 C         141.3219  139.9327  154.9682 C.3     1  UNL1        0.0896
     26 C         140.2782  138.4179  156.8029 C.3     1  UNL1        0.0725
     27 C         139.9198  138.1765  158.2393 C.3     1  UNL1        0.0217
     28 O         141.5503  137.5350  164.0208 O.3     1  UNL1       -0.4779
     29 C         142.6569  138.3858  164.5700 C.3     1  UNL1        0.1662
     30 C         142.7437  138.6429  166.0453 C.3     1  UNL1        0.0472
     31 C         143.6766  138.9797  163.6440 C.3     1  UNL1        0.0472
     32 N         140.6817  142.9234  166.2896 N.pl3   1  UNL1       -0.2967
     33 H         141.3849  143.3419  166.8370 H       1  UNL1        0.1536
     34 C         140.1930  143.6060  165.0466 C.ar    1  UNL1        0.0667
     35 C         138.7341  143.9148  164.8846 C.ar    1  UNL1        0.0159
     36 C         138.2455  144.5974  163.6416 C.ar    1  UNL1        0.0014
     37 C         139.2158  144.9713  162.5604 C.ar    1  UNL1        0.0014
     38 C         140.6747  144.6625  162.7224 C.ar    1  UNL1        0.0196
     39 C         141.1633  143.9798  163.9655 C.ar    1  UNL1        0.1189
     40 S         142.6222  143.6710  164.1274 S.O2    1  UNL1        0.0082
     41 O         142.9253  145.1385  164.1948 O.2     1  UNL1       -0.1686
     42 O         142.3191  142.2035  164.0600 O.2     1  UNL1       -0.1686
     43 C         144.0811  143.3623  164.2894 C.3     1  UNL1        0.1340
     44 C         144.8228  142.6502  163.1972 C.3     1  UNL1        0.0257
     45 C         144.7983  143.7655  165.5436 C.3     1  UNL1        0.0257
@<TRIPOS>BOND
     1    14    15    1
     2    15    16   ar
     3    16    17   ar
     4    17    12    1
     5    12     1    1
     6     1     2   ar
     7     2     3   ar
     8     3    32    1
     9    32    34    1
    10    34    35   ar
    11    35    36   ar
    12    36    37   ar
    13    37    38   ar
    14    38    39   ar
    15    39    40    1
    16    40    41    2
    17    40    42    2
    18    40    43    1
    19    43    44    1
    20    43    45    1
    21     3     4   ar
    22     4     5   ar
    23     5     6    1
    24     5     7   ar
    25     7     8   ar
    26     8     9   ar
    27     9    10   ar
    28    17    18   ar
    29    18    28    1
    30    28    29    1
    31    29    30    1
    32    29    31    1
    33    18    19   ar
    34    19    20   ar
    35    20    21    1
    36    21    22    1
    37    22    23    1
    38    23    24    1
    39    24    25    1
    40    24    26    1
    41    26    27    1
    42    20    15   ar
    43    27    21    1
    44    10     1   ar
    45    39    34   ar
    46     9     4    1
    47    12    13    1
    48    32    33    1
    49    10    11    1
@<TRIPOS>MOLECULE
*****
 45 49 0 0 0
SMALL
GASTEIGER

@<TRIPOS>ATOM
      1 C         141.7883  144.7042  160.5322 C.ar    1  UNL1        0.2006
      2 N         141.2459  143.3125  160.3961 N.ar    1  UNL1       -0.1999
      3 C         140.8282  142.7985  159.0502 C.ar    1  UNL1        0.1391
      4 C         140.9531  143.6764  157.8404 C.ar    1  UNL1        0.0827
      5 C         140.6247  143.4461  156.3950 C.ar    1  UNL1        0.0866
      6 C         140.0565  142.1874  155.8096 C.3     1  UNL1        0.0542
      7 N         140.9643  144.6957  155.6378 N.ar    1  UNL1       -0.1508
      8 N         141.5025  145.6982  156.6152 N.ar    1  UNL1       -0.1305
      9 C         141.4956  145.0682  157.9765 C.ar    1  UNL1        0.1679
     10 N         141.9133  145.5821  159.3224 N.ar    1  UNL1       -0.3104
     11 H         142.2693  146.4956  159.4117 H       1  UNL1        0.1701
     12 N         142.2060  145.2182  161.8781 N.pl3   1  UNL1       -0.2816
     13 H         142.7502  146.0359  161.9457 H       1  UNL1        0.1551
     14 C         138.5852  144.0317  165.4112 C.3     1  UNL1        0.0307
     15 C         139.9840  143.8931  164.8877 C.ar    1  UNL1       -0.0244
     16 C         140.3956  144.6250  163.6447 C.ar    1  UNL1        0.0132
     17 C         141.7944  144.4864  163.1211 C.ar    1  UNL1        0.0845
     18 C         142.7817  143.6160  163.8406 C.ar    1  UNL1        0.1513
     19 C         142.3701  142.8841  165.0836 C.ar    1  UNL1        0.0336
     20 C         140.9714  143.0227  165.6071 C.ar    1  UNL1       -0.0233
     21 C         140.5598  142.2908  166.8501 C.3     1  UNL1        0.0249
     22 C         140.0565  140.8808  166.7583 C.3     1  UNL1        0.0217
     23 C         139.6449  140.1489  168.0013 C.3     1  UNL1        0.0725
     24 N         139.7367  140.8272  169.3361 N.3     1  UNL1       -0.2715
     25 C         139.3251  140.0954  170.5792 C.3     1  UNL1        0.0896
     26 C         140.2400  142.2372  169.4278 C.3     1  UNL1        0.0725
     27 C         140.6515  142.9691  168.1849 C.3     1  UNL1        0.0217
     28 O         144.1805  143.4774  163.3171 O.3     1  UNL1       -0.4779
     29 C         144.6931  142.1327  162.8937 C.3     1  UNL1        0.1662
     30 C         144.1853  141.4996  161.6323 C.3     1  UNL1        0.0472
     31 C         145.7135  141.4212  163.7318 C.3     1  UNL1        0.0472
     32 N         140.2857  141.4066  158.9142 N.pl3   1  UNL1       -0.2967
     33 H         139.4505  141.2503  158.4169 H       1  UNL1        0.1536
     34 C         141.0156  140.2531  159.5358 C.ar    1  UNL1        0.0667
     35 C         142.1063  139.5584  158.7757 C.ar    1  UNL1        0.0159
     36 C         142.8362  138.4048  159.3974 C.ar    1  UNL1        0.0014
     37 C         142.4754  137.9460  160.7792 C.ar    1  UNL1        0.0014
     38 C         141.3848  138.6408  161.5393 C.ar    1  UNL1        0.0196
     39 C         140.6549  139.7943  160.9176 C.ar    1  UNL1        0.1189
     40 S         139.5642  140.4891  161.6777 S.O2    1  UNL1        0.0082
     41 O         140.5776  141.0167  162.6496 O.2     1  UNL1       -0.1686
     42 O         138.5508  139.9614  160.7058 O.2     1  UNL1       -0.1686
     43 C         138.4735  141.1838  162.4378 C.3     1  UNL1        0.1340
     44 C         137.9033  142.4719  161.9224 C.3     1  UNL1        0.0257
     45 C         137.9531  140.5904  163.7134 C.3     1  UNL1        0.0257
@<TRIPOS>BOND
     1    14    15    1
     2    15    16   ar
     3    16    17   ar
     4    17    12    1
     5    12     1    1
     6     1     2   ar
     7     2     3   ar
     8     3    32    1
     9    32    34    1
    10    34    35   ar
    11    35    36   ar
    12    36    37   ar
    13    37    38   ar
    14    38    39   ar
    15    39    40    1
    16    40    41    2
    17    40    42    2
    18    40    43    1
    19    43    44    1
    20    43    45    1
    21     3     4   ar
    22     4     5   ar
    23     5     6    1
    24     5     7   ar
    25     7     8   ar
    26     8     9   ar
    27     9    10   ar
    28    17    18   ar
    29    18    28    1
    30    28    29    1
    31    29    30    1
    32    29    31    1
    33    18    19   ar
    34    19    20   ar
    35    20    21    1
    36    21    22    1
    37    22    23    1
    38    23    24    1
    39    24    25    1
    40    24    26    1
    41    26    27    1
    42    20    15   ar
    43    27    21    1
    44    10     1   ar
    45    39    34   ar
    46     9     4    1
    47    12    13    1
    48    32    33    1
    49    10    11    1
@<TRIPOS>MOLECULE
*****
 45 49 0 0 0
SMALL
GASTEIGER

@<TRIPOS>ATOM
      1 C         139.3271  139.2854  165.4343 C.ar    1  UNL1        0.2006
      2 N         139.9667  140.6126  165.1527 N.ar    1  UNL1       -0.1999
      3 C         140.2241  141.5743  166.2747 C.ar    1  UNL1        0.1391
      4 C         139.8420  141.2087  167.6784 C.ar    1  UNL1        0.0827
      5 C         139.9711  141.9461  168.9782 C.ar    1  UNL1        0.0866
      6 C         140.5571  143.3147  169.1610 C.3     1  UNL1        0.0542
      7 N         139.4113  141.0746  170.0631 N.ar    1  UNL1       -0.1508
      8 N         138.9362  139.7985  169.4338 N.ar    1  UNL1       -0.1305
      9 C         139.2024  139.8814  167.9600 C.ar    1  UNL1        0.1679
     10 N         138.9450  138.9198  166.8379 N.ar    1  UNL1       -0.3104
     11 H         138.5252  138.0487  167.0227 H       1  UNL1        0.1701
     12 N         139.0697  138.3237  164.3122 N.pl3   1  UNL1       -0.2816
     13 H         138.3901  137.6188  164.4142 H       1  UNL1        0.1551
     14 C         139.2546  139.4279  159.2380 C.3     1  UNL1        0.0307
     15 C         139.9403  138.9883  160.4976 C.ar    1  UNL1       -0.0244
     16 C         139.1622  138.8758  161.7751 C.ar    1  UNL1        0.0132
     17 C         139.8478  138.4362  163.0348 C.ar    1  UNL1        0.0845
     18 C         141.3115  138.1090  163.0169 C.ar    1  UNL1        0.1513
     19 C         142.0897  138.2214  161.7394 C.ar    1  UNL1        0.0336
     20 C         141.4041  138.6610  160.4799 C.ar    1  UNL1       -0.0233
     21 C         142.1822  138.7735  159.2024 C.3     1  UNL1        0.0249
     22 C         142.2144  137.6233  158.2401 C.3     1  UNL1        0.0217
     23 C         142.9925  137.7357  156.9627 C.3     1  UNL1        0.0725
     24 N         143.7384  138.9984  156.6475 N.3     1  UNL1       -0.2715
     25 C         144.5166  139.1109  155.3700 C.3     1  UNL1        0.0896
     26 C         143.7062  140.1486  157.6098 C.3     1  UNL1        0.0725
     27 C         142.9281  140.0361  158.8872 C.3     1  UNL1        0.0217
     28 O         141.9972  137.6693  164.2765 O.3     1  UNL1       -0.4779
     29 C         142.9482  138.5953  164.9752 C.3     1  UNL1        0.1662
     30 C         144.0134  139.3058  164.1939 C.3     1  UNL1        0.0472
     31 C         142.8340  138.8107  166.4552 C.3     1  UNL1        0.0472
     32 N         140.8638  142.9016  165.9931 N.pl3   1  UNL1       -0.2967
     33 H         140.4851  143.7229  166.3819 H       1  UNL1        0.1536
     34 C         142.0803  142.9774  165.1189 C.ar    1  UNL1        0.0667
     35 C         143.4448  142.7969  165.7152 C.ar    1  UNL1        0.0159
     36 C         144.6613  142.8727  164.8410 C.ar    1  UNL1        0.0014
     37 C         144.5134  143.1291  163.3705 C.ar    1  UNL1        0.0014
     38 C         143.1489  143.3097  162.7742 C.ar    1  UNL1        0.0196
     39 C         141.9324  143.2338  163.6484 C.ar    1  UNL1        0.1189
     40 S         140.5679  143.4144  163.0521 S.O2    1  UNL1        0.0082
     41 O         140.7314  142.1329  162.2899 O.2     1  UNL1       -0.1686
     42 O         140.4043  144.6959  163.8144 O.2     1  UNL1       -0.1686
     43 C         139.2034  143.5949  162.4559 C.3     1  UNL1        0.1340
     44 C         138.8479  142.9035  161.1731 C.3     1  UNL1        0.0257
     45 C         138.1943  144.4670  163.1424 C.3     1  UNL1        0.0257
@<TRIPOS>BOND
     1    14    15    1
     2    15    16   ar
     3    16    17   ar
     4    17    12    1
     5    12     1    1
     6     1     2   ar
     7     2     3   ar
     8     3    32    1
     9    32    34    1
    10    34    35   ar
    11    35    36   ar
    12    36    37   ar
    13    37    38   ar
    14    38    39   ar
    15    39    40    1
    16    40    41    2
    17    40    42    2
    18    40    43    1
    19    43    44    1
    20    43    45    1
    21     3     4   ar
    22     4     5   ar
    23     5     6    1
    24     5     7   ar
    25     7     8   ar
    26     8     9   ar
    27     9    10   ar
    28    17    18   ar
    29    18    28    1
    30    28    29    1
    31    29    30    1
    32    29    31    1
    33    18    19   ar
    34    19    20   ar
    35    20    21    1
    36    21    22    1
    37    22    23    1
    38    23    24    1
    39    24    25    1
    40    24    26    1
    41    26    27    1
    42    20    15   ar
    43    27    21    1
    44    10     1   ar
    45    39    34   ar
    46     9     4    1
    47    12    13    1
    48    32    33    1
    49    10    11    1
@<TRIPOS>MOLECULE
*****
 45 49 0 0 0
SMALL
GASTEIGER

@<TRIPOS>ATOM
      1 C         139.6804  139.1722  165.0537 C.ar    1  UNL1        0.2006
      2 N         140.5705  140.3691  164.8963 N.ar    1  UNL1       -0.1999
      3 C         140.8278  141.2717  166.0665 C.ar    1  UNL1        0.1391
      4 C         140.1949  140.9771  167.3941 C.ar    1  UNL1        0.0827
      5 C         140.2637  141.6809  168.7170 C.ar    1  UNL1        0.0866
      6 C         141.0433  142.9278  169.0128 C.3     1  UNL1        0.0542
      7 N         139.4161  140.9188  169.6920 N.ar    1  UNL1       -0.1508
      8 N         138.8234  139.7441  168.9718 N.ar    1  UNL1       -0.1305
      9 C         139.3047  139.7801  167.5515 C.ar    1  UNL1        0.1679
     10 N         139.0475  138.8777  166.3814 N.ar    1  UNL1       -0.3104
     11 H         138.4632  138.0920  166.4847 H       1  UNL1        0.1701
     12 N         139.4231  138.2696  163.8835 N.pl3   1  UNL1       -0.2816
     13 H         138.7335  137.5696  163.9440 H       1  UNL1        0.1551
     14 C         143.8444  137.6233  161.2312 C.3     1  UNL1        0.0307
     15 C         142.4272  138.1106  161.2950 C.ar    1  UNL1       -0.0244
     16 C         141.6338  137.9465  162.5573 C.ar    1  UNL1        0.0132
     17 C         140.2165  138.4337  162.6212 C.ar    1  UNL1        0.0845
     18 C         139.5927  139.0851  161.4226 C.ar    1  UNL1        0.1513
     19 C         140.3862  139.2493  160.1602 C.ar    1  UNL1        0.0336
     20 C         141.8033  138.7620  160.0964 C.ar    1  UNL1       -0.0233
     21 C         142.5967  138.9261  158.8340 C.3     1  UNL1        0.0249
     22 C         143.4807  140.1246  158.6542 C.3     1  UNL1        0.0217
     23 C         144.2741  140.2887  157.3919 C.3     1  UNL1        0.0725
     24 N         144.1836  139.2544  156.3094 N.3     1  UNL1       -0.2715
     25 C         144.9770  139.4184  155.0469 C.3     1  UNL1        0.0896
     26 C         143.2996  138.0559  156.4892 C.3     1  UNL1        0.0725
     27 C         142.5062  137.8918  157.7515 C.3     1  UNL1        0.0217
     28 O         138.1755  139.5724  161.4864 O.3     1  UNL1       -0.4779
     29 C         137.8909  141.0140  161.7879 C.3     1  UNL1        0.1662
     30 C         138.1073  142.0578  160.7326 C.3     1  UNL1        0.0472
     31 C         137.3899  141.4117  163.1446 C.3     1  UNL1        0.0472
     32 N         141.7180  142.4687  165.9089 N.pl3   1  UNL1       -0.2967
     33 H         141.5994  143.2509  166.4948 H       1  UNL1        0.1536
     34 C         142.7890  142.4738  164.8587 C.ar    1  UNL1        0.0667
     35 C         144.0720  141.7327  165.0921 C.ar    1  UNL1        0.0159
     36 C         145.1429  141.7379  164.0418 C.ar    1  UNL1        0.0014
     37 C         144.9307  142.4843  162.7581 C.ar    1  UNL1        0.0014
     38 C         143.6477  143.2255  162.5247 C.ar    1  UNL1        0.0196
     39 C         142.5768  143.2202  163.5750 C.ar    1  UNL1        0.1189
     40 S         141.2938  143.9614  163.3415 S.O2    1  UNL1        0.0082
     41 O         141.7622  145.0587  164.2506 O.2     1  UNL1       -0.1686
     42 O         140.8253  142.8640  162.4325 O.2     1  UNL1       -0.1686
     43 C         140.0107  144.7025  163.1081 C.3     1  UNL1        0.1340
     44 C         138.9425  144.7028  164.1611 C.3     1  UNL1        0.0257
     45 C         139.7959  145.4434  161.8216 C.3     1  UNL1        0.0257
@<TRIPOS>BOND
     1    14    15    1
     2    15    16   ar
     3    16    17   ar
     4    17    12    1
     5    12     1    1
     6     1     2   ar
     7     2     3   ar
     8     3    32    1
     9    32    34    1
    10    34    35   ar
    11    35    36   ar
    12    36    37   ar
    13    37    38   ar
    14    38    39   ar
    15    39    40    1
    16    40    41    2
    17    40    42    2
    18    40    43    1
    19    43    44    1
    20    43    45    1
    21     3     4   ar
    22     4     5   ar
    23     5     6    1
    24     5     7   ar
    25     7     8   ar
    26     8     9   ar
    27     9    10   ar
    28    17    18   ar
    29    18    28    1
    30    28    29    1
    31    29    30    1
    32    29    31    1
    33    18    19   ar
    34    19    20   ar
    35    20    21    1
    36    21    22    1
    37    22    23    1
    38    23    24    1
    39    24    25    1
    40    24    26    1
    41    26    27    1
    42    20    15   ar
    43    27    21    1
    44    10     1   ar
    45    39    34   ar
    46     9     4    1
    47    12    13    1
    48    32    33    1
    49    10    11    1
@<TRIPOS>MOLECULE
*****
 45 49 0 0 0
SMALL
GASTEIGER

@<TRIPOS>ATOM
      1 C         141.5910  144.8665  160.5886 C.ar    1  UNL1        0.2006
      2 N         141.9132  143.4174  160.3743 N.ar    1  UNL1       -0.1999
      3 C         142.2247  142.9141  158.9960 C.ar    1  UNL1        0.1391
      4 C         142.2141  143.8602  157.8320 C.ar    1  UNL1        0.0827
      5 C         142.4788  143.6555  156.3698 C.ar    1  UNL1        0.0866
      6 C         142.8389  142.3562  155.7124 C.3     1  UNL1        0.0542
      7 N         142.3203  144.9782  155.6805 N.ar    1  UNL1       -0.1508
      8 N         141.9575  146.0004  156.7166 N.ar    1  UNL1       -0.1305
      9 C         141.8919  145.3094  158.0464 C.ar    1  UNL1        0.1679
     10 N         141.5803  145.8126  159.4247 N.ar    1  UNL1       -0.3104
     11 H         141.3689  146.7637  159.5653 H       1  UNL1        0.1701
     12 N         141.2795  145.3698  161.9670 N.pl3   1  UNL1       -0.2816
     13 H         140.9448  146.2871  162.0921 H       1  UNL1        0.1551
     14 C         144.4082  143.2618  165.5403 C.3     1  UNL1        0.0307
     15 C         143.0422  143.4212  164.9413 C.ar    1  UNL1       -0.0244
     16 C         142.8438  144.3158  163.7537 C.ar    1  UNL1        0.0132
     17 C         141.4779  144.4752  163.1546 C.ar    1  UNL1        0.0845
     18 C         140.3104  143.7401  163.7432 C.ar    1  UNL1        0.1513
     19 C         140.5088  142.8455  164.9308 C.ar    1  UNL1        0.0336
     20 C         141.8746  142.6861  165.5298 C.ar    1  UNL1       -0.0233
     21 C         142.0730  141.7916  166.7174 C.3     1  UNL1        0.0249
     22 C         142.4360  140.3498  166.5181 C.3     1  UNL1        0.0217
     23 C         142.6344  139.4553  167.7057 C.3     1  UNL1        0.0725
     24 N         142.4699  140.0025  169.0926 N.3     1  UNL1       -0.2715
     25 C         142.6683  139.1080  170.2804 C.3     1  UNL1        0.0896
     26 C         142.1069  141.4442  169.2919 C.3     1  UNL1        0.0725
     27 C         141.9085  142.3387  168.1043 C.3     1  UNL1        0.0217
     28 O         138.9444  143.8995  163.1442 O.3     1  UNL1       -0.4779
     29 C         138.2851  142.7385  162.4605 C.3     1  UNL1        0.1662
     30 C         137.3425  141.8556  163.2233 C.3     1  UNL1        0.0472
     31 C         138.5685  142.4605  161.0140 C.3     1  UNL1        0.0472
     32 N         142.5469  141.4648  158.7817 N.pl3   1  UNL1       -0.2967
     33 H         143.3657  141.2088  158.2987 H       1  UNL1        0.1536
     34 C         141.6216  140.4058  159.3034 C.ar    1  UNL1        0.0667
     35 C         140.4499  139.9612  158.4792 C.ar    1  UNL1        0.0159
     36 C         139.5247  138.9021  159.0010 C.ar    1  UNL1        0.0014
     37 C         139.7712  138.2876  160.3470 C.ar    1  UNL1        0.0014
     38 C         140.9430  138.7322  161.1712 C.ar    1  UNL1        0.0196
     39 C         141.8682  139.7912  160.6494 C.ar    1  UNL1        0.1189
     40 S         143.0400  140.2358  161.4736 S.O2    1  UNL1        0.0082
     41 O         143.9764  139.6680  160.4485 O.2     1  UNL1       -0.1686
     42 O         142.1036  140.8036  162.4986 O.2     1  UNL1       -0.1686
     43 C         144.2117  140.6804  162.2977 C.3     1  UNL1        0.1340
     44 C         144.6115  139.9006  163.5151 C.3     1  UNL1        0.0257
     45 C         144.9838  141.9049  161.9045 C.3     1  UNL1        0.0257
@<TRIPOS>BOND
     1    14    15    1
     2    15    16   ar
     3    16    17   ar
     4    17    12    1
     5    12     1    1
     6     1     2   ar
     7     2     3   ar
     8     3    32    1
     9    32    34    1
    10    34    35   ar
    11    35    36   ar
    12    36    37   ar
    13    37    38   ar
    14    38    39   ar
    15    39    40    1
    16    40    41    2
    17    40    42    2
    18    40    43    1
    19    43    44    1
    20    43    45    1
    21     3     4   ar
    22     4     5   ar
    23     5     6    1
    24     5     7   ar
    25     7     8   ar
    26     8     9   ar
    27     9    10   ar
    28    17    18   ar
    29    18    28    1
    30    28    29    1
    31    29    30    1
    32    29    31    1
    33    18    19   ar
    34    19    20   ar
    35    20    21    1
    36    21    22    1
    37    22    23    1
    38    23    24    1
    39    24    25    1
    40    24    26    1
    41    26    27    1
    42    20    15   ar
    43    27    21    1
    44    10     1   ar
    45    39    34   ar
    46     9     4    1
    47    12    13    1
    48    32    33    1
    49    10    11    1
@<TRIPOS>MOLECULE
*****
 45 49 0 0 0
SMALL
GASTEIGER

@<TRIPOS>ATOM
      1 C         141.3092  138.6513  160.9402 C.ar    1  UNL1        0.2006
      2 N         142.0448  139.9321  161.2017 N.ar    1  UNL1       -0.1999
      3 C         142.9577  140.4999  160.1556 C.ar    1  UNL1        0.1391
      4 C         143.1349  139.7868  158.8479 C.ar    1  UNL1        0.0827
      5 C         143.9608  140.1028  157.6363 C.ar    1  UNL1        0.0866
      6 C         144.8548  141.2950  157.4651 C.3     1  UNL1        0.0542
      7 N         143.7356  139.0173  156.6259 N.ar    1  UNL1       -0.1508
      8 N         142.7706  138.0304  157.2130 N.ar    1  UNL1       -0.1305
      9 C         142.3993  138.5060  158.5863 C.ar    1  UNL1        0.1679
     10 N         141.4865  137.9382  159.6325 N.ar    1  UNL1       -0.3104
     11 H         141.0037  137.0976  159.4608 H       1  UNL1        0.1701
     12 N         140.3963  138.0835  161.9863 N.pl3   1  UNL1       -0.2816
     13 H         139.8655  137.2776  161.7915 H       1  UNL1        0.1551
     14 C         142.4653  139.2163  166.6163 C.3     1  UNL1        0.0307
     15 C         141.3268  139.3101  165.6442 C.ar    1  UNL1       -0.0244
     16 C         141.4308  138.6499  164.3013 C.ar    1  UNL1        0.0132
     17 C         140.2923  138.7437  163.3292 C.ar    1  UNL1        0.0845
     18 C         139.0498  139.4977  163.6999 C.ar    1  UNL1        0.1513
     19 C         138.9457  140.1580  165.0429 C.ar    1  UNL1        0.0336
     20 C         140.0841  140.0642  166.0149 C.ar    1  UNL1       -0.0233
     21 C         139.9801  140.7244  167.3578 C.3     1  UNL1        0.0249
     22 C         139.3355  139.9995  168.5020 C.3     1  UNL1        0.0217
     23 C         139.2315  140.6597  169.8448 C.3     1  UNL1        0.0725
     24 N         139.7720  142.0447  170.0435 N.3     1  UNL1       -0.2715
     25 C         139.6681  142.7051  171.3864 C.3     1  UNL1        0.0896
     26 C         140.4166  142.7696  168.8993 C.3     1  UNL1        0.0725
     27 C         140.5207  142.1094  167.5565 C.3     1  UNL1        0.0217
     28 O         137.9112  139.5916  162.7278 O.3     1  UNL1       -0.4779
     29 C         137.9078  140.6629  161.6779 C.3     1  UNL1        0.1662
     30 C         137.8299  142.1061  162.0792 C.3     1  UNL1        0.0472
     31 C         137.9824  140.2909  160.2267 C.3     1  UNL1        0.0472
     32 N         143.6932  141.7807  160.4172 N.pl3   1  UNL1       -0.2967
     33 H         143.9609  142.3571  159.6653 H       1  UNL1        0.1536
     34 C         144.0209  142.1834  161.8245 C.ar    1  UNL1        0.0667
     35 C         145.2132  141.5912  162.5158 C.ar    1  UNL1        0.0159
     36 C         145.5408  141.9940  163.9230 C.ar    1  UNL1        0.0014
     37 C         144.6762  142.9888  164.6390 C.ar    1  UNL1        0.0014
     38 C         143.4840  143.5810  163.9478 C.ar    1  UNL1        0.0196
     39 C         143.1563  143.1783  162.5405 C.ar    1  UNL1        0.1189
     40 S         141.9641  143.7704  161.8492 S.O2    1  UNL1        0.0082
     41 O         142.8702  144.4341  160.8550 O.2     1  UNL1       -0.1686
     42 O         141.0580  143.1068  162.8435 O.2     1  UNL1       -0.1686
     43 C         140.7718  144.3626  161.1580 C.3     1  UNL1        0.1340
     44 C         140.3110  143.8022  159.8451 C.3     1  UNL1        0.0257
     45 C         140.0403  145.5152  161.7797 C.3     1  UNL1        0.0257
@<TRIPOS>BOND
     1    14    15    1
     2    15    16   ar
     3    16    17   ar
     4    17    12    1
     5    12     1    1
     6     1     2   ar
     7     2     3   ar
     8     3    32    1
     9    32    34    1
    10    34    35   ar
    11    35    36   ar
    12    36    37   ar
    13    37    38   ar
    14    38    39   ar
    15    39    40    1
    16    40    41    2
    17    40    42    2
    18    40    43    1
    19    43    44    1
    20    43    45    1
    21     3     4   ar
    22     4     5   ar
    23     5     6    1
    24     5     7   ar
    25     7     8   ar
    26     8     9   ar
    27     9    10   ar
    28    17    18   ar
    29    18    28    1
    30    28    29    1
    31    29    30    1
    32    29    31    1
    33    18    19   ar
    34    19    20   ar
    35    20    21    1
    36    21    22    1
    37    22    23    1
    38    23    24    1
    39    24    25    1
    40    24    26    1
    41    26    27    1
    42    20    15   ar
    43    27    21    1
    44    10     1   ar
    45    39    34   ar
    46     9     4    1
    47    12    13    1
    48    32    33    1
    49    10    11    1
