@<TRIPOS>MOLECULE
*****
 40 44 0 0 0
SMALL
GASTEIGER

@<TRIPOS>ATOM
      1 O         145.9550  141.7550  162.8132 O.2     1  UNL1       -0.2749
      2 C         144.7878  142.6474  163.1153 C.2     1  UNL1        0.2256
      3 N         143.8813  143.0973  162.0081 N.am    1  UNL1       -0.2766
      4 C         142.7140  143.9897  162.3102 C.3     1  UNL1        0.1126
      5 C         141.8076  144.4395  161.2030 C.3     1  UNL1        0.1173
      6 N         142.0684  143.9971  159.7937 N.3     1  UNL1       -0.1520
      7 C         143.2356  143.1048  159.4915 C.3     1  UNL1        0.1173
      8 C         144.1421  142.6549  160.5988 C.3     1  UNL1        0.1126
      9 C         144.5270  143.0898  164.5246 C.3     1  UNL1        0.0811
     10 C         144.8675  143.9622  165.6964 C.3     1  UNL1        0.0142
     11 C         143.7348  142.9838  165.7939 C.3     1  UNL1        0.0314
     12 C         142.6233  142.3576  166.5831 C.ar    1  UNL1       -0.0220
     13 C         141.2285  142.3415  166.0315 C.ar    1  UNL1       -0.0043
     14 C         140.1172  141.7154  166.8207 C.ar    1  UNL1        0.0035
     15 C         140.4006  141.1053  168.1614 C.ar    1  UNL1        0.0714
     16 C         141.7954  141.1214  168.7129 C.ar    1  UNL1        0.0035
     17 C         142.9068  141.7475  167.9238 C.ar    1  UNL1       -0.0043
     18 C         139.2892  140.4791  168.9505 C.3     1  UNL1        0.4186
     19 F         138.1778  139.8530  169.7397 F       1  UNL1       -0.1659
     20 F         139.1449  139.4151  167.9032 F       1  UNL1       -0.1659
     21 F         139.4335  141.5432  169.9979 F       1  UNL1       -0.1659
     22 S         141.1619  144.4470  158.6865 S.O2    1  UNL1        0.0634
     23 O         142.1609  145.4951  158.2945 O.2     1  UNL1       -0.1528
     24 O         140.1630  143.3990  159.0784 O.2     1  UNL1       -0.1528
     25 C         140.2554  144.8969  157.5793 C.ar    1  UNL1        0.1222
     26 C         140.1089  146.3588  157.2771 C.ar    1  UNL1        0.0214
     27 C         139.2024  146.8086  156.1699 C.ar    1  UNL1        0.0184
     28 C         138.4425  145.7965  155.3649 C.ar    1  UNL1        0.0054
     29 C         138.5890  144.3346  155.6670 C.ar    1  UNL1        0.0728
     30 C         139.4955  143.8848  156.7742 C.ar    1  UNL1        0.0238
     31 C         139.0558  148.2706  155.8678 C.ar    1  UNL1        0.0755
     32 C         139.5428  148.9688  154.6328 C.ar    1  UNL1        0.0409
     33 C         139.1845  150.4207  154.7493 C.ar    1  UNL1        0.1214
     34 N         138.4761  150.6198  156.0564 N.ar    1  UNL1       -0.1711
     35 N         138.3966  149.2909  156.7476 N.ar    1  UNL1       -0.2757
     36 H         137.9841  149.1187  157.6248 H       1  UNL1        0.1889
     37 C         137.8290  143.3225  154.8619 C.3     1  UNL1        0.4186
     38 F         137.0691  142.3104  154.0568 F       1  UNL1       -0.1659
     39 F         138.6559  142.2243  155.4620 F       1  UNL1       -0.1659
     40 F         137.0022  144.4208  154.2618 F       1  UNL1       -0.1659
@<TRIPOS>BOND
     1     1     2    2
     2     9     2    1
     3     9    10    1
     4    10    11    1
     5    11    12    1
     6    12    13   ar
     7    13    14   ar
     8    14    15   ar
     9    15    18    1
    10    18    19    1
    11    18    20    1
    12    18    21    1
    13    15    16   ar
    14    16    17   ar
    15     2     3   am
    16     3     4    1
    17     4     5    1
    18     5     6    1
    19     6    22    1
    20    22    23    2
    21    22    24    2
    22    22    25    1
    23    25    26   ar
    24    26    27   ar
    25    27    31    1
    26    31    32   ar
    27    32    33   ar
    28    33    34   ar
    29    34    35   ar
    30    27    28   ar
    31    28    29   ar
    32    29    37    1
    33    37    38    1
    34    37    39    1
    35    37    40    1
    36    29    30   ar
    37     6     7    1
    38     7     8    1
    39    11     9    1
    40    17    12   ar
    41     8     3    1
    42    30    25   ar
    43    35    31   ar
    44    35    36    1
@<TRIPOS>MOLECULE
*****
 40 44 0 0 0
SMALL
GASTEIGER

@<TRIPOS>ATOM
      1 O         145.6325  141.4640  162.6686 O.2     1  UNL1       -0.2749
      2 C         144.5469  142.4561  162.9645 C.2     1  UNL1        0.2256
      3 N         143.6434  142.9295  161.8648 N.am    1  UNL1       -0.2766
      4 C         142.5579  143.9216  162.1607 C.3     1  UNL1        0.1126
      5 C         141.6544  144.3950  161.0610 C.3     1  UNL1        0.1173
      6 N         141.8364  143.8764  159.6653 N.3     1  UNL1       -0.1520
      7 C         142.9218  142.8844  159.3693 C.3     1  UNL1        0.1173
      8 C         143.8254  142.4109  160.4691 C.3     1  UNL1        0.1126
      9 C         144.3650  142.9746  164.3602 C.3     1  UNL1        0.0811
     10 C         144.7760  143.9017  165.4654 C.3     1  UNL1        0.0142
     11 C         143.6388  142.9457  165.6724 C.3     1  UNL1        0.0314
     12 C         142.5629  142.3771  166.5495 C.ar    1  UNL1       -0.0220
     13 C         141.1995  142.1080  165.9852 C.ar    1  UNL1       -0.0043
     14 C         140.1237  141.5393  166.8622 C.ar    1  UNL1        0.0035
     15 C         140.4114  141.2398  168.3036 C.ar    1  UNL1        0.0714
     16 C         141.7748  141.5090  168.8679 C.ar    1  UNL1        0.0035
     17 C         142.8506  142.0776  167.9908 C.ar    1  UNL1       -0.0043
     18 C         139.3355  140.6712  169.1807 C.3     1  UNL1        0.4186
     19 F         138.2597  140.1026  170.0577 F       1  UNL1       -0.1659
     20 F         139.2527  139.4629  168.2958 F       1  UNL1       -0.1659
     21 F         139.4183  141.8795  170.0656 F       1  UNL1       -0.1659
     22 S         140.9329  144.3498  158.5655 S.O2    1  UNL1        0.0634
     23 O         139.7470  144.1874  159.4697 O.2     1  UNL1       -0.1528
     24 O         142.1186  144.5123  157.6613 O.2     1  UNL1       -0.1528
     25 C         140.0294  144.8233  157.4657 C.ar    1  UNL1        0.1222
     26 C         139.0070  143.8936  156.8824 C.ar    1  UNL1        0.0214
     27 C         138.1035  144.3670  155.7826 C.ar    1  UNL1        0.0184
     28 C         138.2225  145.7703  155.2661 C.ar    1  UNL1        0.0054
     29 C         139.2448  146.7000  155.8494 C.ar    1  UNL1        0.0728
     30 C         140.1483  146.2266  156.9492 C.ar    1  UNL1        0.0238
     31 C         137.0811  143.4373  155.1993 C.ar    1  UNL1        0.0755
     32 C         136.8663  143.1668  153.7396 C.ar    1  UNL1        0.0409
     33 C         135.7464  142.1772  153.6114 C.ar    1  UNL1        0.1214
     34 N         135.2691  141.8360  154.9919 N.ar    1  UNL1       -0.1711
     35 N         136.0940  142.6148  155.9732 N.ar    1  UNL1       -0.2757
     36 H         136.0035  142.5904  156.9532 H       1  UNL1        0.1889
     37 C         139.3638  148.1033  155.3329 C.3     1  UNL1        0.4186
     38 F         139.4827  149.5065  154.8164 F       1  UNL1       -0.1659
     39 F         138.5673  148.6012  156.5023 F       1  UNL1       -0.1659
     40 F         140.1603  147.6053  154.1634 F       1  UNL1       -0.1659
@<TRIPOS>BOND
     1     1     2    2
     2     9     2    1
     3     9    10    1
     4    10    11    1
     5    11    12    1
     6    12    13   ar
     7    13    14   ar
     8    14    15   ar
     9    15    18    1
    10    18    19    1
    11    18    20    1
    12    18    21    1
    13    15    16   ar
    14    16    17   ar
    15     2     3   am
    16     3     4    1
    17     4     5    1
    18     5     6    1
    19     6    22    1
    20    22    23    2
    21    22    24    2
    22    22    25    1
    23    25    26   ar
    24    26    27   ar
    25    27    31    1
    26    31    32   ar
    27    32    33   ar
    28    33    34   ar
    29    34    35   ar
    30    27    28   ar
    31    28    29   ar
    32    29    37    1
    33    37    38    1
    34    37    39    1
    35    37    40    1
    36    29    30   ar
    37     6     7    1
    38     7     8    1
    39    11     9    1
    40    17    12   ar
    41     8     3    1
    42    30    25   ar
    43    35    31   ar
    44    35    36    1
@<TRIPOS>MOLECULE
*****
 40 44 0 0 0
SMALL
GASTEIGER

@<TRIPOS>ATOM
      1 O         141.1268  136.8628  163.0869 O.2     1  UNL1       -0.2749
      2 C         140.0064  137.8501  163.2287 C.2     1  UNL1        0.2256
      3 N         139.5528  138.6454  162.0406 N.am    1  UNL1       -0.2766
      4 C         138.4324  139.6327  162.1823 C.3     1  UNL1        0.1126
      5 C         137.9788  140.4281  160.9942 C.3     1  UNL1        0.1173
      6 N         138.6456  140.2362  159.6643 N.3     1  UNL1       -0.1520
      7 C         139.7659  139.2490  159.5225 C.3     1  UNL1        0.1173
      8 C         140.2196  138.4536  160.7107 C.3     1  UNL1        0.1126
      9 C         139.3397  138.0420  164.5586 C.3     1  UNL1        0.0811
     10 C         138.3375  137.6029  165.5846 C.3     1  UNL1        0.0142
     11 C         139.1869  138.8134  165.8359 C.3     1  UNL1        0.0314
     12 C         139.5892  139.9577  166.7184 C.ar    1  UNL1       -0.0220
     13 C         139.5126  139.8176  168.2098 C.ar    1  UNL1       -0.0043
     14 C         139.9148  140.9619  169.0922 C.ar    1  UNL1        0.0035
     15 C         140.3937  142.2463  168.4832 C.ar    1  UNL1        0.0714
     16 C         140.4704  142.3865  166.9918 C.ar    1  UNL1        0.0035
     17 C         140.0681  141.2422  166.1094 C.ar    1  UNL1       -0.0043
     18 C         140.7960  143.3907  169.3657 C.3     1  UNL1        0.4186
     19 F         141.1983  144.5349  170.2482 F       1  UNL1       -0.1659
     20 F         139.9006  144.3071  168.5857 F       1  UNL1       -0.1659
     21 F         141.6913  142.4743  170.1458 F       1  UNL1       -0.1659
     22 S         138.1920  141.0315  158.4762 S.O2    1  UNL1        0.0634
     23 O         139.3881  141.9256  158.6180 O.2     1  UNL1       -0.1528
     24 O         136.9959  140.1376  158.3344 O.2     1  UNL1       -0.1528
     25 C         137.7383  141.8269  157.2881 C.ar    1  UNL1        0.1222
     26 C         138.4726  143.0747  156.8961 C.ar    1  UNL1        0.0214
     27 C         138.0190  143.8700  155.7080 C.ar    1  UNL1        0.0184
     28 C         136.8310  143.4174  154.9118 C.ar    1  UNL1        0.0054
     29 C         136.0967  142.1696  155.3038 C.ar    1  UNL1        0.0728
     30 C         136.5503  141.3743  156.4919 C.ar    1  UNL1        0.0238
     31 C         138.7533  145.1179  155.3160 C.ar    1  UNL1        0.0755
     32 C         140.0755  145.1780  154.6103 C.ar    1  UNL1        0.0409
     33 C         140.4337  146.6220  154.4190 C.ar    1  UNL1        0.1214
     34 N         139.3328  147.4543  155.0065 N.ar    1  UNL1       -0.1711
     35 N         138.2943  146.5247  155.5609 N.ar    1  UNL1       -0.2757
     36 H         137.4581  146.7912  156.0071 H       1  UNL1        0.1889
     37 C         134.9087  141.7171  154.5076 C.3     1  UNL1        0.4186
     38 F         133.7207  141.2645  153.7114 F       1  UNL1       -0.1659
     39 F         134.4427  140.8932  155.6712 F       1  UNL1       -0.1659
     40 F         135.3746  142.5410  153.3440 F       1  UNL1       -0.1659
@<TRIPOS>BOND
     1     1     2    2
     2     9     2    1
     3     9    10    1
     4    10    11    1
     5    11    12    1
     6    12    13   ar
     7    13    14   ar
     8    14    15   ar
     9    15    18    1
    10    18    19    1
    11    18    20    1
    12    18    21    1
    13    15    16   ar
    14    16    17   ar
    15     2     3   am
    16     3     4    1
    17     4     5    1
    18     5     6    1
    19     6    22    1
    20    22    23    2
    21    22    24    2
    22    22    25    1
    23    25    26   ar
    24    26    27   ar
    25    27    31    1
    26    31    32   ar
    27    32    33   ar
    28    33    34   ar
    29    34    35   ar
    30    27    28   ar
    31    28    29   ar
    32    29    37    1
    33    37    38    1
    34    37    39    1
    35    37    40    1
    36    29    30   ar
    37     6     7    1
    38     7     8    1
    39    11     9    1
    40    17    12   ar
    41     8     3    1
    42    30    25   ar
    43    35    31   ar
    44    35    36    1
@<TRIPOS>MOLECULE
*****
 40 44 0 0 0
SMALL
GASTEIGER

@<TRIPOS>ATOM
      1 O         142.6772  144.3899  157.1345 O.2     1  UNL1       -0.2749
      2 C         141.2831  144.3053  157.6817 C.2     1  UNL1        0.2256
      3 N         141.0479  143.7400  159.0510 N.am    1  UNL1       -0.2766
      4 C         139.6537  143.6554  159.5982 C.3     1  UNL1        0.1126
      5 C         139.4186  143.0901  160.9675 C.3     1  UNL1        0.1173
      6 N         140.5774  142.6094  161.7897 N.3     1  UNL1       -0.1520
      7 C         141.9715  142.6940  161.2426 C.3     1  UNL1        0.1173
      8 C         142.2067  143.2593  159.8732 C.3     1  UNL1        0.1126
      9 C         140.1242  144.7859  156.8595 C.3     1  UNL1        0.0811
     10 C         138.8629  144.4995  156.0999 C.3     1  UNL1        0.0142
     11 C         139.3783  145.9049  156.1951 C.3     1  UNL1        0.0314
     12 C         139.2453  147.3625  155.8664 C.ar    1  UNL1       -0.0220
     13 C         138.6063  148.2977  156.8498 C.ar    1  UNL1       -0.0043
     14 C         138.4733  149.7552  156.5211 C.ar    1  UNL1        0.0035
     15 C         138.9793  150.2774  155.2091 C.ar    1  UNL1        0.0714
     16 C         139.6182  149.3421  154.2257 C.ar    1  UNL1        0.0035
     17 C         139.7512  147.8847  154.5544 C.ar    1  UNL1       -0.0043
     18 C         138.8462  151.7349  154.8804 C.3     1  UNL1        0.4186
     19 F         138.7132  153.1924  154.5518 F       1  UNL1       -0.1659
     20 F         138.8490  151.4053  153.4171 F       1  UNL1       -0.1659
     21 F         138.8434  152.0646  156.3437 F       1  UNL1       -0.1659
     22 S         140.3422  142.0442  163.1591 S.O2    1  UNL1        0.0634
     23 O         139.5355  143.2560  163.5208 O.2     1  UNL1       -0.1528
     24 O         141.1489  140.8324  162.7974 O.2     1  UNL1       -0.1528
     25 C         140.1070  141.4788  164.5285 C.ar    1  UNL1        0.1222
     26 C         140.6121  142.2083  165.7379 C.ar    1  UNL1        0.0214
     27 C         140.3769  141.6429  167.1072 C.ar    1  UNL1        0.0184
     28 C         139.6367  140.3481  167.2671 C.ar    1  UNL1        0.0054
     29 C         139.1316  139.6187  166.0576 C.ar    1  UNL1        0.0728
     30 C         139.3668  140.1840  164.6883 C.ar    1  UNL1        0.0238
     31 C         140.8819  142.3724  168.3167 C.ar    1  UNL1        0.0755
     32 C         142.2806  142.3227  168.8562 C.ar    1  UNL1        0.0409
     33 C         142.3400  143.1992  170.0720 C.ar    1  UNL1        0.1214
     34 N         140.9780  143.7906  170.2839 N.ar    1  UNL1       -0.1711
     35 N         140.0768  143.2797  169.1991 N.ar    1  UNL1       -0.2757
     36 H         139.1242  143.5009  169.0861 H       1  UNL1        0.1889
     37 C         138.3914  138.3238  166.2175 C.3     1  UNL1        0.4186
     38 F         137.6512  137.0290  166.3773 F       1  UNL1       -0.1659
     39 F         139.4416  137.6235  165.4072 F       1  UNL1       -0.1659
     40 F         137.3413  139.0242  167.0278 F       1  UNL1       -0.1659
@<TRIPOS>BOND
     1     1     2    2
     2     9     2    1
     3     9    10    1
     4    10    11    1
     5    11    12    1
     6    12    13   ar
     7    13    14   ar
     8    14    15   ar
     9    15    18    1
    10    18    19    1
    11    18    20    1
    12    18    21    1
    13    15    16   ar
    14    16    17   ar
    15     2     3   am
    16     3     4    1
    17     4     5    1
    18     5     6    1
    19     6    22    1
    20    22    23    2
    21    22    24    2
    22    22    25    1
    23    25    26   ar
    24    26    27   ar
    25    27    31    1
    26    31    32   ar
    27    32    33   ar
    28    33    34   ar
    29    34    35   ar
    30    27    28   ar
    31    28    29   ar
    32    29    37    1
    33    37    38    1
    34    37    39    1
    35    37    40    1
    36    29    30   ar
    37     6     7    1
    38     7     8    1
    39    11     9    1
    40    17    12   ar
    41     8     3    1
    42    30    25   ar
    43    35    31   ar
    44    35    36    1
@<TRIPOS>MOLECULE
*****
 40 44 0 0 0
SMALL
GASTEIGER

@<TRIPOS>ATOM
      1 O         144.1546  144.2548  162.0952 O.2     1  UNL1       -0.2749
      2 C         142.9630  143.3532  162.2266 C.2     1  UNL1        0.2256
      3 N         142.7963  142.1898  161.2946 N.am    1  UNL1       -0.2766
      4 C         141.6047  141.2882  161.4260 C.3     1  UNL1        0.1126
      5 C         141.4380  140.1249  160.4939 C.3     1  UNL1        0.1173
      6 N         142.4629  139.8631  159.4304 N.3     1  UNL1       -0.1520
      7 C         143.6545  140.7647  159.2989 C.3     1  UNL1        0.1173
      8 C         143.8212  141.9281  160.2310 C.3     1  UNL1        0.1126
      9 C         141.9381  143.6149  163.2902 C.3     1  UNL1        0.0811
     10 C         141.1814  144.5781  164.1560 C.3     1  UNL1        0.0142
     11 C         140.9198  143.1052  164.2664 C.3     1  UNL1        0.0314
     12 C         140.1808  141.9605  164.8938 C.ar    1  UNL1       -0.0220
     13 C         140.5306  141.5127  166.2820 C.ar    1  UNL1       -0.0043
     14 C         139.7916  140.3680  166.9093 C.ar    1  UNL1        0.0035
     15 C         138.7028  139.6711  166.1485 C.ar    1  UNL1        0.0714
     16 C         138.3530  140.1189  164.7603 C.ar    1  UNL1        0.0035
     17 C         139.0920  141.2636  164.1330 C.ar    1  UNL1       -0.0043
     18 C         137.9639  138.5264  166.7759 C.3     1  UNL1        0.4186
     19 F         137.2249  137.3817  167.4033 F       1  UNL1       -0.1659
     20 F         138.1087  137.7379  165.5081 F       1  UNL1       -0.1659
     21 F         137.8190  139.3148  168.0437 F       1  UNL1       -0.1659
     22 S         142.2962  138.6998  158.4983 S.O2    1  UNL1        0.0634
     23 O         143.6509  138.9731  157.9148 O.2     1  UNL1       -0.1528
     24 O         140.9417  138.4264  159.0817 O.2     1  UNL1       -0.1528
     25 C         142.1295  137.5363  157.5662 C.ar    1  UNL1        0.1222
     26 C         142.9868  136.3163  157.7287 C.ar    1  UNL1        0.0214
     27 C         142.8201  135.1530  156.7966 C.ar    1  UNL1        0.0184
     28 C         141.7960  135.2097  155.7020 C.ar    1  UNL1        0.0054
     29 C         140.9387  136.4298  155.5395 C.ar    1  UNL1        0.0728
     30 C         141.1054  137.5931  156.4716 C.ar    1  UNL1        0.0238
     31 C         143.6774  133.9328  156.9590 C.ar    1  UNL1        0.0755
     32 C         144.1018  133.0011  155.8628 C.ar    1  UNL1        0.0409
     33 C         144.9475  131.9227  156.4725 C.ar    1  UNL1        0.1214
     34 N         145.0458  132.1880  157.9455 N.ar    1  UNL1       -0.1711
     35 N         144.2608  133.4303  158.2462 N.ar    1  UNL1       -0.2757
     36 H         144.1483  133.8433  159.1328 H       1  UNL1        0.1889
     37 C         139.9146  136.4865  154.4450 C.3     1  UNL1        0.4186
     38 F         138.8905  136.5432  153.3504 F       1  UNL1       -0.1659
     39 F         139.0298  137.3278  155.3164 F       1  UNL1       -0.1659
     40 F         140.7994  135.6451  153.5736 F       1  UNL1       -0.1659
@<TRIPOS>BOND
     1     1     2    2
     2     9     2    1
     3     9    10    1
     4    10    11    1
     5    11    12    1
     6    12    13   ar
     7    13    14   ar
     8    14    15   ar
     9    15    18    1
    10    18    19    1
    11    18    20    1
    12    18    21    1
    13    15    16   ar
    14    16    17   ar
    15     2     3   am
    16     3     4    1
    17     4     5    1
    18     5     6    1
    19     6    22    1
    20    22    23    2
    21    22    24    2
    22    22    25    1
    23    25    26   ar
    24    26    27   ar
    25    27    31    1
    26    31    32   ar
    27    32    33   ar
    28    33    34   ar
    29    34    35   ar
    30    27    28   ar
    31    28    29   ar
    32    29    37    1
    33    37    38    1
    34    37    39    1
    35    37    40    1
    36    29    30   ar
    37     6     7    1
    38     7     8    1
    39    11     9    1
    40    17    12   ar
    41     8     3    1
    42    30    25   ar
    43    35    31   ar
    44    35    36    1
@<TRIPOS>MOLECULE
*****
 40 44 0 0 0
SMALL
GASTEIGER

@<TRIPOS>ATOM
      1 O         143.5624  144.2238  161.6934 O.2     1  UNL1       -0.2749
      2 C         143.7287  142.7906  162.1036 C.2     1  UNL1        0.2256
      3 N         143.4206  141.6914  161.1306 N.am    1  UNL1       -0.2766
      4 C         143.5869  140.2581  161.5409 C.3     1  UNL1        0.1126
      5 C         143.2788  139.1589  160.5679 C.3     1  UNL1        0.1173
      6 N         142.8044  139.4928  159.1847 N.3     1  UNL1       -0.1520
      7 C         142.6381  140.9260  158.7744 C.3     1  UNL1        0.1173
      8 C         142.9462  142.0253  159.7474 C.3     1  UNL1        0.1126
      9 C         144.2031  142.4567  163.4869 C.3     1  UNL1        0.0811
     10 C         145.2946  142.0086  164.4130 C.3     1  UNL1        0.0142
     11 C         143.9332  142.3264  164.9566 C.3     1  UNL1        0.0314
     12 C         142.9913  142.4347  166.1191 C.ar    1  UNL1       -0.0220
     13 C         141.5176  142.5789  165.8794 C.ar    1  UNL1       -0.0043
     14 C         140.5758  142.6872  167.0418 C.ar    1  UNL1        0.0035
     15 C         141.1077  142.6513  168.4439 C.ar    1  UNL1        0.0714
     16 C         142.5814  142.5072  168.6836 C.ar    1  UNL1        0.0035
     17 C         143.5232  142.3989  167.5212 C.ar    1  UNL1       -0.0043
     18 C         140.1658  142.7597  169.6064 C.3     1  UNL1        0.4186
     19 F         139.2240  142.8680  170.7687 F       1  UNL1       -0.1659
     20 F         139.9751  141.2720  169.5905 F       1  UNL1       -0.1659
     21 F         140.3566  144.2474  169.6222 F       1  UNL1       -0.1659
     22 S         142.4963  138.3936  158.2117 S.O2    1  UNL1        0.0634
     23 O         143.7237  138.7461  157.4247 O.2     1  UNL1       -0.1528
     24 O         141.2690  138.0410  158.9986 O.2     1  UNL1       -0.1528
     25 C         142.1881  137.2943  157.2387 C.ar    1  UNL1        0.1222
     26 C         143.0040  136.0356  157.2461 C.ar    1  UNL1        0.0214
     27 C         142.6958  134.9364  156.2731 C.ar    1  UNL1        0.0184
     28 C         141.5718  135.0959  155.2927 C.ar    1  UNL1        0.0054
     29 C         140.7559  136.3545  155.2854 C.ar    1  UNL1        0.0728
     30 C         141.0641  137.4537  156.2583 C.ar    1  UNL1        0.0238
     31 C         143.5117  133.6777  156.2804 C.ar    1  UNL1        0.0755
     32 C         143.3417  132.5113  155.3527 C.ar    1  UNL1        0.0409
     33 C         144.3657  131.4772  155.7157 C.ar    1  UNL1        0.1214
     34 N         145.1687  132.0044  156.8678 N.ar    1  UNL1       -0.1711
     35 N         144.6408  133.3644  157.2167 N.ar    1  UNL1       -0.2757
     36 H         144.9766  133.9488  157.9344 H       1  UNL1        0.1889
     37 C         139.6319  136.5140  154.3050 C.3     1  UNL1        0.4186
     38 F         138.5078  136.6734  153.3246 F       1  UNL1       -0.1659
     39 F         140.5576  136.1457  153.1837 F       1  UNL1       -0.1659
     40 F         138.7061  136.8822  155.4263 F       1  UNL1       -0.1659
@<TRIPOS>BOND
     1     1     2    2
     2     9     2    1
     3     9    10    1
     4    10    11    1
     5    11    12    1
     6    12    13   ar
     7    13    14   ar
     8    14    15   ar
     9    15    18    1
    10    18    19    1
    11    18    20    1
    12    18    21    1
    13    15    16   ar
    14    16    17   ar
    15     2     3   am
    16     3     4    1
    17     4     5    1
    18     5     6    1
    19     6    22    1
    20    22    23    2
    21    22    24    2
    22    22    25    1
    23    25    26   ar
    24    26    27   ar
    25    27    31    1
    26    31    32   ar
    27    32    33   ar
    28    33    34   ar
    29    34    35   ar
    30    27    28   ar
    31    28    29   ar
    32    29    37    1
    33    37    38    1
    34    37    39    1
    35    37    40    1
    36    29    30   ar
    37     6     7    1
    38     7     8    1
    39    11     9    1
    40    17    12   ar
    41     8     3    1
    42    30    25   ar
    43    35    31   ar
    44    35    36    1
@<TRIPOS>MOLECULE
*****
 40 44 0 0 0
SMALL
GASTEIGER

@<TRIPOS>ATOM
      1 O         144.6618  140.4051  157.8724 O.2     1  UNL1       -0.2749
      2 C         143.3871  139.6937  158.2180 C.2     1  UNL1        0.2256
      3 N         142.8455  139.7615  159.6151 N.am    1  UNL1       -0.2766
      4 C         141.5708  139.0502  159.9607 C.3     1  UNL1        0.1126
      5 C         141.0291  139.1180  161.3578 C.3     1  UNL1        0.1173
      6 N         141.7620  139.8971  162.4093 N.3     1  UNL1       -0.1520
      7 C         143.0366  140.6084  162.0638 C.3     1  UNL1        0.1173
      8 C         143.5784  140.5406  160.6667 C.3     1  UNL1        0.1126
      9 C         142.6542  138.9146  157.1664 C.3     1  UNL1        0.0811
     10 C         141.7478  138.8787  155.9718 C.3     1  UNL1        0.0142
     11 C         142.2913  137.6011  156.5396 C.3     1  UNL1        0.0314
     12 C         142.3955  136.1051  156.5055 C.ar    1  UNL1       -0.0220
     13 C         143.2368  135.3886  157.5199 C.ar    1  UNL1       -0.0043
     14 C         143.3410  133.8926  157.4858 C.ar    1  UNL1        0.0035
     15 C         142.6039  133.1131  156.4374 C.ar    1  UNL1        0.0714
     16 C         141.7626  133.8296  155.4231 C.ar    1  UNL1        0.0035
     17 C         141.6584  135.3256  155.4571 C.ar    1  UNL1       -0.0043
     18 C         142.7081  131.6171  156.4033 C.3     1  UNL1        0.4186
     19 F         142.8124  130.1212  156.3693 F       1  UNL1       -0.1659
     20 F         141.3907  131.5415  155.6901 F       1  UNL1       -0.1659
     21 F         144.0255  131.6927  157.1165 F       1  UNL1       -0.1659
     22 S         141.2204  139.9649  163.8064 S.O2    1  UNL1        0.0634
     23 O         139.9782  139.2527  163.3594 O.2     1  UNL1       -0.1528
     24 O         142.4625  140.6771  164.2535 O.2     1  UNL1       -0.1528
     25 C         140.6787  140.0327  165.2036 C.ar    1  UNL1        0.1222
     26 C         141.3569  140.8909  166.2301 C.ar    1  UNL1        0.0214
     27 C         140.8152  140.9587  167.6272 C.ar    1  UNL1        0.0184
     28 C         139.5954  140.1683  167.9978 C.ar    1  UNL1        0.0054
     29 C         138.9172  139.3102  166.9714 C.ar    1  UNL1        0.0728
     30 C         139.4589  139.2424  165.5743 C.ar    1  UNL1        0.0238
     31 C         141.4934  141.8168  168.6537 C.ar    1  UNL1        0.0755
     32 C         142.9423  141.7550  169.0366 C.ar    1  UNL1        0.0409
     33 C         143.1860  142.7874  170.0971 C.ar    1  UNL1        0.1214
     34 N         141.8877  143.4873  170.3696 N.ar    1  UNL1       -0.1711
     35 N         140.8416  142.8874  169.4776 N.ar    1  UNL1       -0.2757
     36 H         139.8936  143.1503  169.4395 H       1  UNL1        0.1889
     37 C         137.6974  138.5198  167.3420 C.3     1  UNL1        0.4186
     38 F         136.4776  137.7295  167.7127 F       1  UNL1       -0.1659
     39 F         137.7286  137.8439  166.0033 F       1  UNL1       -0.1659
     40 F         137.6662  139.1958  168.6807 F       1  UNL1       -0.1659
@<TRIPOS>BOND
     1     1     2    2
     2     9     2    1
     3     9    10    1
     4    10    11    1
     5    11    12    1
     6    12    13   ar
     7    13    14   ar
     8    14    15   ar
     9    15    18    1
    10    18    19    1
    11    18    20    1
    12    18    21    1
    13    15    16   ar
    14    16    17   ar
    15     2     3   am
    16     3     4    1
    17     4     5    1
    18     5     6    1
    19     6    22    1
    20    22    23    2
    21    22    24    2
    22    22    25    1
    23    25    26   ar
    24    26    27   ar
    25    27    31    1
    26    31    32   ar
    27    32    33   ar
    28    33    34   ar
    29    34    35   ar
    30    27    28   ar
    31    28    29   ar
    32    29    37    1
    33    37    38    1
    34    37    39    1
    35    37    40    1
    36    29    30   ar
    37     6     7    1
    38     7     8    1
    39    11     9    1
    40    17    12   ar
    41     8     3    1
    42    30    25   ar
    43    35    31   ar
    44    35    36    1
@<TRIPOS>MOLECULE
*****
 40 44 0 0 0
SMALL
GASTEIGER

@<TRIPOS>ATOM
      1 O         137.0708  141.3115  163.0240 O.2     1  UNL1       -0.2749
      2 C         138.1594  140.3098  163.2723 C.2     1  UNL1        0.2256
      3 N         139.0280  139.8497  162.1393 N.am    1  UNL1       -0.2766
      4 C         140.1166  138.8480  162.3876 C.3     1  UNL1        0.1126
      5 C         140.9852  138.3879  161.2546 C.3     1  UNL1        0.1173
      6 N         140.7652  138.9295  159.8732 N.3     1  UNL1       -0.1520
      7 C         139.6767  139.9312  159.6248 C.3     1  UNL1        0.1173
      8 C         138.8081  140.3913  160.7579 C.3     1  UNL1        0.1126
      9 C         138.3793  139.7682  164.6538 C.3     1  UNL1        0.0811
     10 C         138.1483  138.7017  165.6829 C.3     1  UNL1        0.0142
     11 C         138.9913  139.8966  166.0172 C.3     1  UNL1        0.0314
     12 C         139.8313  140.6606  166.9974 C.ar    1  UNL1       -0.0220
     13 C         139.9389  140.1919  168.4182 C.ar    1  UNL1       -0.0043
     14 C         140.7789  140.9559  169.3983 C.ar    1  UNL1        0.0035
     15 C         141.5113  142.1886  168.9576 C.ar    1  UNL1        0.0714
     16 C         141.4036  142.6572  167.5368 C.ar    1  UNL1        0.0035
     17 C         140.5637  141.8932  166.5567 C.ar    1  UNL1       -0.0043
     18 C         142.3513  142.9526  169.9378 C.3     1  UNL1        0.4186
     19 F         143.1913  143.7166  170.9180 F       1  UNL1       -0.1659
     20 F         143.4096  141.8927  169.8570 F       1  UNL1       -0.1659
     21 F         141.2930  144.0124  170.0186 F       1  UNL1       -0.1659
     22 S         141.6338  138.4694  158.7401 S.O2    1  UNL1        0.0634
     23 O         140.5924  138.9198  157.7589 O.2     1  UNL1       -0.1528
     24 O         142.6752  138.0191  159.7213 O.2     1  UNL1       -0.1528
     25 C         142.5025  138.0093  157.6070 C.ar    1  UNL1        0.1222
     26 C         142.6102  136.5471  157.2905 C.ar    1  UNL1        0.0214
     27 C         143.4788  136.0871  156.1575 C.ar    1  UNL1        0.0184
     28 C         144.2397  137.0892  155.3410 C.ar    1  UNL1        0.0054
     29 C         144.1320  138.5515  155.6576 C.ar    1  UNL1        0.0728
     30 C         143.2634  139.0115  156.7906 C.ar    1  UNL1        0.0238
     31 C         143.5866  134.6248  155.8408 C.ar    1  UNL1        0.0755
     32 C         142.8263  133.8955  154.7731 C.ar    1  UNL1        0.0409
     33 C         143.2434  132.4551  154.8088 C.ar    1  UNL1        0.1214
     34 N         144.2613  132.2942  155.8986 N.ar    1  UNL1       -0.1711
     35 N         144.4734  133.6351  156.5364 N.ar    1  UNL1       -0.2757
     36 H         145.0870  133.8312  157.2809 H       1  UNL1        0.1889
     37 C         144.8930  139.5536  154.8411 C.3     1  UNL1        0.4186
     38 F         145.6539  140.5558  154.0246 F       1  UNL1       -0.1659
     39 F         144.1468  139.1206  153.6141 F       1  UNL1       -0.1659
     40 F         145.6392  139.9867  156.0681 F       1  UNL1       -0.1659
@<TRIPOS>BOND
     1     1     2    2
     2     9     2    1
     3     9    10    1
     4    10    11    1
     5    11    12    1
     6    12    13   ar
     7    13    14   ar
     8    14    15   ar
     9    15    18    1
    10    18    19    1
    11    18    20    1
    12    18    21    1
    13    15    16   ar
    14    16    17   ar
    15     2     3   am
    16     3     4    1
    17     4     5    1
    18     5     6    1
    19     6    22    1
    20    22    23    2
    21    22    24    2
    22    22    25    1
    23    25    26   ar
    24    26    27   ar
    25    27    31    1
    26    31    32   ar
    27    32    33   ar
    28    33    34   ar
    29    34    35   ar
    30    27    28   ar
    31    28    29   ar
    32    29    37    1
    33    37    38    1
    34    37    39    1
    35    37    40    1
    36    29    30   ar
    37     6     7    1
    38     7     8    1
    39    11     9    1
    40    17    12   ar
    41     8     3    1
    42    30    25   ar
    43    35    31   ar
    44    35    36    1
@<TRIPOS>MOLECULE
*****
 40 44 0 0 0
SMALL
GASTEIGER

@<TRIPOS>ATOM
      1 O         137.1322  141.2866  163.0005 O.2     1  UNL1       -0.2749
      2 C         138.2129  140.2775  163.2537 C.2     1  UNL1        0.2256
      3 N         139.0813  139.8092  162.1240 N.am    1  UNL1       -0.2766
      4 C         140.1619  138.8000  162.3772 C.3     1  UNL1        0.1126
      5 C         141.0304  138.3317  161.2474 C.3     1  UNL1        0.1173
      6 N         140.8183  138.8724  159.8644 N.3     1  UNL1       -0.1520
      7 C         139.7378  139.8815  159.6112 C.3     1  UNL1        0.1173
      8 C         138.8692  140.3499  160.7410 C.3     1  UNL1        0.1126
      9 C         138.4249  139.7368  164.6367 C.3     1  UNL1        0.0811
     10 C         138.1794  138.6763  165.6686 C.3     1  UNL1        0.0142
     11 C         139.0378  139.8608  166.0001 C.3     1  UNL1        0.0314
     12 C         139.8874  140.6163  166.9787 C.ar    1  UNL1       -0.0220
     13 C         140.7502  141.7484  166.5053 C.ar    1  UNL1       -0.0043
     14 C         141.5996  142.5038  167.4839 C.ar    1  UNL1        0.0035
     15 C         141.5863  142.1273  168.9358 C.ar    1  UNL1        0.0714
     16 C         140.7235  140.9953  169.4092 C.ar    1  UNL1        0.0035
     17 C         139.8741  140.2398  168.4306 C.ar    1  UNL1       -0.0043
     18 C         142.4358  142.8828  169.9144 C.3     1  UNL1        0.4186
     19 F         143.2854  143.6383  170.8929 F       1  UNL1       -0.1659
     20 F         141.3886  143.9535  169.9969 F       1  UNL1       -0.1659
     21 F         143.4830  141.8121  169.8319 F       1  UNL1       -0.1659
     22 S         141.6867  138.4041  158.7347 S.O2    1  UNL1        0.0634
     23 O         142.9066  138.8358  159.4934 O.2     1  UNL1       -0.1528
     24 O         140.4669  137.9724  157.9760 O.2     1  UNL1       -0.1528
     25 C         142.5552  137.9357  157.6048 C.ar    1  UNL1        0.1222
     26 C         143.2861  138.9341  156.7570 C.ar    1  UNL1        0.0214
     27 C         144.1545  138.4657  155.6273 C.ar    1  UNL1        0.0184
     28 C         144.2920  136.9989  155.3453 C.ar    1  UNL1        0.0054
     29 C         143.5611  136.0004  156.1931 C.ar    1  UNL1        0.0728
     30 C         142.6927  136.4688  157.3229 C.ar    1  UNL1        0.0238
     31 C         144.8856  139.4641  154.7794 C.ar    1  UNL1        0.0755
     32 C         145.5268  140.7307  155.2638 C.ar    1  UNL1        0.0409
     33 C         146.1412  141.4206  154.0821 C.ar    1  UNL1        0.1214
     34 N         145.8796  140.5804  152.8673 N.ar    1  UNL1       -0.1711
     35 N         145.1036  139.3713  153.2983 N.ar    1  UNL1       -0.2757
     36 H         144.7921  138.6444  152.7120 H       1  UNL1        0.1889
     37 C         143.6985  134.5336  155.9111 C.3     1  UNL1        0.4186
     38 F         143.8360  133.0668  155.6291 F       1  UNL1       -0.1659
     39 F         143.3471  134.7771  154.4733 F       1  UNL1       -0.1659
     40 F         144.0499  134.2901  157.3489 F       1  UNL1       -0.1659
@<TRIPOS>BOND
     1     1     2    2
     2     9     2    1
     3     9    10    1
     4    10    11    1
     5    11    12    1
     6    12    13   ar
     7    13    14   ar
     8    14    15   ar
     9    15    18    1
    10    18    19    1
    11    18    20    1
    12    18    21    1
    13    15    16   ar
    14    16    17   ar
    15     2     3   am
    16     3     4    1
    17     4     5    1
    18     5     6    1
    19     6    22    1
    20    22    23    2
    21    22    24    2
    22    22    25    1
    23    25    26   ar
    24    26    27   ar
    25    27    31    1
    26    31    32   ar
    27    32    33   ar
    28    33    34   ar
    29    34    35   ar
    30    27    28   ar
    31    28    29   ar
    32    29    37    1
    33    37    38    1
    34    37    39    1
    35    37    40    1
    36    29    30   ar
    37     6     7    1
    38     7     8    1
    39    11     9    1
    40    17    12   ar
    41     8     3    1
    42    30    25   ar
    43    35    31   ar
    44    35    36    1
