@<TRIPOS>MOLECULE
*****
 27 29 0 0 0
SMALL
GASTEIGER

@<TRIPOS>ATOM
      1 C         141.4983  142.2648  167.2882 C.3     1  UNL1        0.0847
      2 F         136.9907  142.1859  163.3290 F       1  UNL1       -0.2042
      3 C         138.1176  142.2056  164.3188 C.ar    1  UNL1        0.1401
      4 C         138.4618  140.9649  165.0883 C.ar    1  UNL1        0.0294
      5 C         139.5887  140.9846  166.0781 C.ar    1  UNL1       -0.0007
      6 C         140.3714  142.2451  166.2984 C.ar    1  UNL1       -0.0073
      7 C         140.0272  143.4858  165.5290 C.ar    1  UNL1       -0.0007
      8 C         138.9003  143.4661  164.5392 C.ar    1  UNL1        0.0294
      9 N         141.2074  142.1857  168.7576 N.3     1  UNL1       -0.2676
     10 C         141.9143  141.1726  169.6086 C.3     1  UNL1        0.0896
     11 C         141.6233  141.0935  171.0780 C.3     1  UNL1        0.0862
     12 N         140.6256  142.0274  171.6964 N.3     1  UNL1       -0.2951
     13 C         139.9188  143.0404  170.8454 C.3     1  UNL1        0.0862
     14 C         140.2097  143.1196  169.3760 C.3     1  UNL1        0.0896
     15 H         141.1188  142.5460  172.4231 H       1  UNL1        0.1233
     16 C         142.9161  142.3637  166.8087 C.3     1  UNL1        0.0499
     17 C         143.4429  141.3708  165.8153 C.ar    1  UNL1        0.0137
     18 C         143.1561  139.9091  165.9917 C.ar    1  UNL1       -0.0012
     19 C         143.6829  138.9162  164.9984 C.ar    1  UNL1       -0.0001
     20 C         144.4964  139.3850  163.8286 C.ar    1  UNL1        0.0031
     21 C         144.7832  140.8468  163.6522 C.ar    1  UNL1        0.0369
     22 C         144.2564  141.8397  164.6455 C.ar    1  UNL1        0.1428
     23 O         144.5432  143.3014  164.4691 O.3     1  UNL1       -0.4048
     24 C         143.4370  144.2429  164.0946 C.3     1  UNL1        0.5753
     25 F         142.3309  145.1843  163.7202 F       1  UNL1       -0.1328
     26 F         144.1378  145.3542  164.8184 F       1  UNL1       -0.1328
     27 F         142.7362  143.1316  163.3709 F       1  UNL1       -0.1328
@<TRIPOS>BOND
     1     2     3    1
     2     3     4   ar
     3     4     5   ar
     4     5     6   ar
     5     6     1    1
     6     1    16    1
     7    16    17    1
     8    17    18   ar
     9    18    19   ar
    10    19    20   ar
    11    20    21   ar
    12    21    22   ar
    13    22    23    1
    14    23    24    1
    15    24    25    1
    16    24    26    1
    17    24    27    1
    18     1     9    1
    19     9    10    1
    20    10    11    1
    21    11    12    1
    22    12    13    1
    23    13    14    1
    24     6     7   ar
    25     7     8   ar
    26     8     3   ar
    27    22    17   ar
    28    14     9    1
    29    12    15    1
@<TRIPOS>MOLECULE
*****
 27 29 0 0 0
SMALL
GASTEIGER

@<TRIPOS>ATOM
      1 C         141.7553  140.9503  166.8590 C.3     1  UNL1        0.0847
      2 F         143.9661  145.3116  163.3819 F       1  UNL1       -0.2042
      3 C         143.4134  144.2213  164.2512 C.ar    1  UNL1        0.1401
      4 C         142.0202  143.7143  164.0235 C.ar    1  UNL1        0.0294
      5 C         141.4675  142.6239  164.8928 C.ar    1  UNL1       -0.0007
      6 C         142.3080  142.0406  165.9897 C.ar    1  UNL1       -0.0073
      7 C         143.7012  142.5476  166.2174 C.ar    1  UNL1       -0.0007
      8 C         144.2539  143.6380  165.3481 C.ar    1  UNL1        0.0294
      9 N         140.9501  141.2970  168.0761 N.3     1  UNL1       -0.2676
     10 C         140.0741  140.2611  168.7161 C.3     1  UNL1        0.0896
     11 C         139.2688  140.6079  169.9332 C.3     1  UNL1        0.0862
     12 N         139.3397  141.9906  170.5104 N.3     1  UNL1       -0.2951
     13 C         140.2157  143.0265  169.8705 C.3     1  UNL1        0.0862
     14 C         141.0209  142.6798  168.6534 C.3     1  UNL1        0.0896
     15 H         139.6573  141.8912  171.4746 H       1  UNL1        0.1233
     16 C         142.0078  139.5132  166.5112 C.3     1  UNL1        0.0499
     17 C         141.2664  138.8754  165.3739 C.ar    1  UNL1        0.0137
     18 C         139.7748  138.7312  165.4379 C.ar    1  UNL1       -0.0012
     19 C         139.0334  138.0934  164.3005 C.ar    1  UNL1       -0.0001
     20 C         139.7837  137.5998  163.0992 C.ar    1  UNL1        0.0031
     21 C         141.2754  137.7440  163.0351 C.ar    1  UNL1        0.0369
     22 C         142.0168  138.3818  164.1725 C.ar    1  UNL1        0.1428
     23 O         143.5084  138.5260  164.1084 O.3     1  UNL1       -0.4048
     24 C         144.1189  139.8391  163.7171 C.3     1  UNL1        0.5753
     25 F         144.7293  141.1522  163.3258 F       1  UNL1       -0.1328
     26 F         145.3493  139.5023  164.5061 F       1  UNL1       -0.1328
     27 F         142.8885  140.1760  162.9281 F       1  UNL1       -0.1328
@<TRIPOS>BOND
     1     2     3    1
     2     3     4   ar
     3     4     5   ar
     4     5     6   ar
     5     6     1    1
     6     1    16    1
     7    16    17    1
     8    17    18   ar
     9    18    19   ar
    10    19    20   ar
    11    20    21   ar
    12    21    22   ar
    13    22    23    1
    14    23    24    1
    15    24    25    1
    16    24    26    1
    17    24    27    1
    18     1     9    1
    19     9    10    1
    20    10    11    1
    21    11    12    1
    22    12    13    1
    23    13    14    1
    24     6     7   ar
    25     7     8   ar
    26     8     3   ar
    27    22    17   ar
    28    14     9    1
    29    12    15    1
@<TRIPOS>MOLECULE
*****
 27 29 0 0 0
SMALL
GASTEIGER

@<TRIPOS>ATOM
      1 C         141.5740  140.9267  166.8628 C.3     1  UNL1        0.0847
      2 F         143.7880  145.2942  163.3954 F       1  UNL1       -0.2042
      3 C         143.2345  144.2023  164.2623 C.ar    1  UNL1        0.1401
      4 C         141.7707  143.8779  164.2168 C.ar    1  UNL1        0.0294
      5 C         141.2172  142.7860  165.0836 C.ar    1  UNL1       -0.0007
      6 C         142.1275  142.0186  165.9960 C.ar    1  UNL1       -0.0073
      7 C         143.5912  142.3430  166.0415 C.ar    1  UNL1       -0.0007
      8 C         144.1447  143.4349  165.1746 C.ar    1  UNL1        0.0294
      9 N         140.8032  141.2713  168.1026 N.3     1  UNL1       -0.2676
     10 C         139.8656  140.2680  168.7060 C.3     1  UNL1        0.0896
     11 C         139.0948  140.6127  169.9459 C.3     1  UNL1        0.0862
     12 N         139.2617  141.9607  170.5822 N.3     1  UNL1       -0.2951
     13 C         140.1993  142.9641  169.9788 C.3     1  UNL1        0.0862
     14 C         140.9701  142.6194  168.7391 C.3     1  UNL1        0.0896
     15 H         139.5796  141.7980  171.5377 H       1  UNL1        0.1233
     16 C         141.7912  139.4902  166.4899 C.3     1  UNL1        0.0499
     17 C         141.7482  139.0745  165.0493 C.ar    1  UNL1        0.0137
     18 C         143.0232  138.7874  164.3132 C.ar    1  UNL1       -0.0012
     19 C         142.9802  138.3717  162.8725 C.ar    1  UNL1       -0.0001
     20 C         141.6622  138.2432  162.1681 C.ar    1  UNL1        0.0031
     21 C         140.3871  138.5303  162.9042 C.ar    1  UNL1        0.0369
     22 C         140.4301  138.9460  164.3448 C.ar    1  UNL1        0.1428
     23 O         139.1552  139.2331  165.0810 O.3     1  UNL1       -0.4048
     24 C         138.4496  138.1325  165.8165 C.3     1  UNL1        0.5753
     25 F         137.7441  137.0319  166.5520 F       1  UNL1       -0.1328
     26 F         137.5271  139.1389  166.4377 F       1  UNL1       -0.1328
     27 F         139.3721  137.1260  165.1953 F       1  UNL1       -0.1328
@<TRIPOS>BOND
     1     2     3    1
     2     3     4   ar
     3     4     5   ar
     4     5     6   ar
     5     6     1    1
     6     1    16    1
     7    16    17    1
     8    17    18   ar
     9    18    19   ar
    10    19    20   ar
    11    20    21   ar
    12    21    22   ar
    13    22    23    1
    14    23    24    1
    15    24    25    1
    16    24    26    1
    17    24    27    1
    18     1     9    1
    19     9    10    1
    20    10    11    1
    21    11    12    1
    22    12    13    1
    23    13    14    1
    24     6     7   ar
    25     7     8   ar
    26     8     3   ar
    27    22    17   ar
    28    14     9    1
    29    12    15    1
@<TRIPOS>MOLECULE
*****
 27 29 0 0 0
SMALL
GASTEIGER

@<TRIPOS>ATOM
      1 C         140.3148  141.5606  166.5498 C.3     1  UNL1        0.0847
      2 F         143.3983  143.6693  171.2451 F       1  UNL1       -0.2042
      3 C         142.6274  143.1421  170.0713 C.ar    1  UNL1        0.1401
      4 C         143.3049  142.2618  169.0633 C.ar    1  UNL1        0.0294
      5 C         142.5340  141.7346  167.8895 C.ar    1  UNL1       -0.0007
      6 C         141.0857  142.0878  167.7236 C.ar    1  UNL1       -0.0073
      7 C         140.4082  142.9681  168.7316 C.ar    1  UNL1       -0.0007
      8 C         141.1791  143.4953  169.9054 C.ar    1  UNL1        0.0294
      9 N         140.1650  142.3973  165.3140 N.3     1  UNL1       -0.2676
     10 C         138.8181  142.9352  164.9311 C.3     1  UNL1        0.0896
     11 C         138.6684  143.7720  163.6951 C.3     1  UNL1        0.0862
     12 N         139.8655  144.0709  162.8422 N.3     1  UNL1       -0.2951
     13 C         141.2124  143.5331  163.2251 C.3     1  UNL1        0.0862
     14 C         141.3622  142.6963  164.4610 C.3     1  UNL1        0.0896
     15 H         139.9538  145.0864  162.8043 H       1  UNL1        0.1233
     16 C         139.6937  140.1967  166.6119 C.3     1  UNL1        0.0499
     17 C         139.8535  139.2468  165.4620 C.ar    1  UNL1        0.0137
     18 C         138.7286  139.0506  164.4894 C.ar    1  UNL1       -0.0012
     19 C         138.8884  138.1007  163.3395 C.ar    1  UNL1       -0.0001
     20 C         140.1731  137.3470  163.1622 C.ar    1  UNL1        0.0031
     21 C         141.2981  137.5432  164.1349 C.ar    1  UNL1        0.0369
     22 C         141.1383  138.4931  165.2847 C.ar    1  UNL1        0.1428
     23 O         142.2632  138.6893  166.2574 O.3     1  UNL1       -0.4048
     24 C         143.6766  138.7743  165.7622 C.3     1  UNL1        0.5753
     25 F         145.0900  138.8594  165.2670 F       1  UNL1       -0.1328
     26 F         144.0152  137.5209  166.5133 F       1  UNL1       -0.1328
     27 F         143.3380  140.0277  165.0110 F       1  UNL1       -0.1328
@<TRIPOS>BOND
     1     2     3    1
     2     3     4   ar
     3     4     5   ar
     4     5     6   ar
     5     6     1    1
     6     1    16    1
     7    16    17    1
     8    17    18   ar
     9    18    19   ar
    10    19    20   ar
    11    20    21   ar
    12    21    22   ar
    13    22    23    1
    14    23    24    1
    15    24    25    1
    16    24    26    1
    17    24    27    1
    18     1     9    1
    19     9    10    1
    20    10    11    1
    21    11    12    1
    22    12    13    1
    23    13    14    1
    24     6     7   ar
    25     7     8   ar
    26     8     3   ar
    27    22    17   ar
    28    14     9    1
    29    12    15    1
@<TRIPOS>MOLECULE
*****
 27 29 0 0 0
SMALL
GASTEIGER

@<TRIPOS>ATOM
      1 C         141.0175  140.0653  167.5047 C.3     1  UNL1        0.0847
      2 F         145.2611  140.3003  163.2695 F       1  UNL1       -0.2042
      3 C         144.2002  140.2416  164.3283 C.ar    1  UNL1        0.1401
      4 C         143.5470  141.5043  164.8064 C.ar    1  UNL1        0.0294
      5 C         142.4861  141.4456  165.8652 C.ar    1  UNL1       -0.0007
      6 C         142.0784  140.1241  166.4459 C.ar    1  UNL1       -0.0073
      7 C         142.7316  138.8613  165.9678 C.ar    1  UNL1       -0.0007
      8 C         143.7925  138.9200  164.9090 C.ar    1  UNL1        0.0294
      9 N         141.3730  140.3283  168.9380 N.3     1  UNL1       -0.2676
     10 C         142.6096  139.7179  169.5282 C.3     1  UNL1        0.0896
     11 C         142.9651  139.9809  170.9616 C.3     1  UNL1        0.0862
     12 N         142.0840  140.8543  171.8047 N.3     1  UNL1       -0.2951
     13 C         140.8474  141.4646  171.2145 C.3     1  UNL1        0.0862
     14 C         140.4919  141.2017  169.7812 C.3     1  UNL1        0.0896
     15 H         142.6638  141.6254  172.1357 H       1  UNL1        0.1233
     16 C         139.6012  139.7436  167.1302 C.3     1  UNL1        0.0499
     17 C         139.2392  139.5134  165.6928 C.ar    1  UNL1        0.0137
     18 C         139.2039  138.1185  165.1424 C.ar    1  UNL1       -0.0012
     19 C         138.8420  137.8882  163.7051 C.ar    1  UNL1       -0.0001
     20 C         138.5154  139.0529  162.8181 C.ar    1  UNL1        0.0031
     21 C         138.5507  140.4479  163.3684 C.ar    1  UNL1        0.0369
     22 C         138.9126  140.6781  164.8058 C.ar    1  UNL1        0.1428
     23 O         138.9480  142.0730  165.3562 O.3     1  UNL1       -0.4048
     24 C         138.7627  143.2459  164.4396 C.3     1  UNL1        0.5753
     25 F         138.5775  144.4187  163.5230 F       1  UNL1       -0.1328
     26 F         140.2338  143.2494  164.1466 F       1  UNL1       -0.1328
     27 F         137.2917  143.2425  164.7325 F       1  UNL1       -0.1328
@<TRIPOS>BOND
     1     2     3    1
     2     3     4   ar
     3     4     5   ar
     4     5     6   ar
     5     6     1    1
     6     1    16    1
     7    16    17    1
     8    17    18   ar
     9    18    19   ar
    10    19    20   ar
    11    20    21   ar
    12    21    22   ar
    13    22    23    1
    14    23    24    1
    15    24    25    1
    16    24    26    1
    17    24    27    1
    18     1     9    1
    19     9    10    1
    20    10    11    1
    21    11    12    1
    22    12    13    1
    23    13    14    1
    24     6     7   ar
    25     7     8   ar
    26     8     3   ar
    27    22    17   ar
    28    14     9    1
    29    12    15    1
@<TRIPOS>MOLECULE
*****
 27 29 0 0 0
SMALL
GASTEIGER

@<TRIPOS>ATOM
      1 C         140.4505  139.8306  166.3864 C.3     1  UNL1        0.0847
      2 F         137.7214  144.5139  163.8137 F       1  UNL1       -0.2042
      3 C         138.4037  143.3431  164.4569 C.ar    1  UNL1        0.1401
      4 C         137.8402  141.9629  164.2913 C.ar    1  UNL1        0.0294
      5 C         138.5225  140.7920  164.9345 C.ar    1  UNL1       -0.0007
      6 C         139.7682  141.0014  165.7433 C.ar    1  UNL1       -0.0073
      7 C         140.3317  142.3816  165.9089 C.ar    1  UNL1       -0.0007
      8 C         139.6495  143.5524  165.2657 C.ar    1  UNL1        0.0294
      9 N         140.7762  139.8637  167.8503 N.3     1  UNL1       -0.2676
     10 C         139.6977  140.1516  168.8523 C.3     1  UNL1        0.0896
     11 C         140.0235  140.1846  170.3161 C.3     1  UNL1        0.0862
     12 N         141.4277  139.9298  170.7779 N.3     1  UNL1       -0.2951
     13 C         142.5061  139.6419  169.7759 C.3     1  UNL1        0.0862
     14 C         142.1804  139.6088  168.3121 C.3     1  UNL1        0.0896
     15 H         141.3896  139.1285  171.4080 H       1  UNL1        0.1233
     16 C         140.8071  138.6267  165.5658 C.3     1  UNL1        0.0499
     17 C         141.8971  138.7149  164.5391 C.ar    1  UNL1        0.0137
     18 C         143.1328  139.5161  164.8241 C.ar    1  UNL1       -0.0012
     19 C         144.2228  139.6043  163.7974 C.ar    1  UNL1       -0.0001
     20 C         144.0771  138.8914  162.4857 C.ar    1  UNL1        0.0031
     21 C         142.8414  138.0902  162.2007 C.ar    1  UNL1        0.0369
     22 C         141.7514  138.0020  163.2274 C.ar    1  UNL1        0.1428
     23 O         140.5157  137.2008  162.9425 O.3     1  UNL1       -0.4048
     24 C         139.2151  137.8982  162.6738 C.3     1  UNL1        0.5753
     25 F         137.9145  138.5955  162.4052 F       1  UNL1       -0.1328
     26 F         139.8705  138.7040  161.5917 F       1  UNL1       -0.1328
     27 F         138.5596  137.0924  163.7559 F       1  UNL1       -0.1328
@<TRIPOS>BOND
     1     2     3    1
     2     3     4   ar
     3     4     5   ar
     4     5     6   ar
     5     6     1    1
     6     1    16    1
     7    16    17    1
     8    17    18   ar
     9    18    19   ar
    10    19    20   ar
    11    20    21   ar
    12    21    22   ar
    13    22    23    1
    14    23    24    1
    15    24    25    1
    16    24    26    1
    17    24    27    1
    18     1     9    1
    19     9    10    1
    20    10    11    1
    21    11    12    1
    22    12    13    1
    23    13    14    1
    24     6     7   ar
    25     7     8   ar
    26     8     3   ar
    27    22    17   ar
    28    14     9    1
    29    12    15    1
@<TRIPOS>MOLECULE
*****
 27 29 0 0 0
SMALL
GASTEIGER

@<TRIPOS>ATOM
      1 C         141.7354  141.0432  166.9657 C.3     1  UNL1        0.0847
      2 F         146.3376  141.8493  163.2014 F       1  UNL1       -0.2042
      3 C         145.1870  141.6478  164.1425 C.ar    1  UNL1        0.1401
      4 C         144.6270  142.8132  164.9028 C.ar    1  UNL1        0.0294
      5 C         143.4764  142.6117  165.8438 C.ar    1  UNL1       -0.0007
      6 C         142.8859  141.2447  166.0246 C.ar    1  UNL1       -0.0073
      7 C         143.4460  140.0793  165.2643 C.ar    1  UNL1       -0.0007
      8 C         144.5966  140.2808  164.3233 C.ar    1  UNL1        0.0294
      9 N         141.9526  141.1371  168.4469 N.3     1  UNL1       -0.2676
     10 C         142.5840  139.9948  169.1862 C.3     1  UNL1        0.0896
     11 C         142.8012  140.0887  170.6675 C.3     1  UNL1        0.0862
     12 N         142.3871  141.3249  171.4093 N.3     1  UNL1       -0.2951
     13 C         141.7558  142.4672  170.6700 C.3     1  UNL1        0.0862
     14 C         141.5385  142.3733  169.1888 C.3     1  UNL1        0.0896
     15 H         143.2252  141.6928  171.8594 H       1  UNL1        0.1233
     16 C         140.3676  140.7478  166.4256 C.3     1  UNL1        0.0499
     17 C         139.5792  141.8291  165.7479 C.ar    1  UNL1        0.0137
     18 C         139.9656  143.2667  165.9320 C.ar    1  UNL1       -0.0012
     19 C         139.1772  144.3479  165.2543 C.ar    1  UNL1       -0.0001
     20 C         138.0024  143.9916  164.3925 C.ar    1  UNL1        0.0031
     21 C         137.6159  142.5539  164.2082 C.ar    1  UNL1        0.0369
     22 C         138.4043  141.4727  164.8860 C.ar    1  UNL1        0.1428
     23 O         138.0179  140.0351  164.7018 O.3     1  UNL1       -0.4048
     24 C         138.8530  139.1390  163.8359 C.3     1  UNL1        0.5753
     25 F         139.6880  138.2429  162.9700 F       1  UNL1       -0.1328
     26 F         139.0882  140.2759  162.8861 F       1  UNL1       -0.1328
     27 F         138.6179  138.0021  164.7857 F       1  UNL1       -0.1328
@<TRIPOS>BOND
     1     2     3    1
     2     3     4   ar
     3     4     5   ar
     4     5     6   ar
     5     6     1    1
     6     1    16    1
     7    16    17    1
     8    17    18   ar
     9    18    19   ar
    10    19    20   ar
    11    20    21   ar
    12    21    22   ar
    13    22    23    1
    14    23    24    1
    15    24    25    1
    16    24    26    1
    17    24    27    1
    18     1     9    1
    19     9    10    1
    20    10    11    1
    21    11    12    1
    22    12    13    1
    23    13    14    1
    24     6     7   ar
    25     7     8   ar
    26     8     3   ar
    27    22    17   ar
    28    14     9    1
    29    12    15    1
@<TRIPOS>MOLECULE
*****
 27 29 0 0 0
SMALL
GASTEIGER

@<TRIPOS>ATOM
      1 C         140.4050  141.4232  162.5652 C.3     1  UNL1        0.0847
      2 F         138.3040  145.6305  166.2913 F       1  UNL1       -0.2042
      3 C         138.8293  144.5787  165.3598 C.ar    1  UNL1        0.1401
      4 C         139.8888  143.6250  165.8264 C.ar    1  UNL1        0.0294
      5 C         140.4141  142.5732  164.8949 C.ar    1  UNL1       -0.0007
      6 C         139.8798  142.4750  163.4967 C.ar    1  UNL1       -0.0073
      7 C         138.8202  143.4287  163.0301 C.ar    1  UNL1       -0.0007
      8 C         138.2950  144.4806  163.9617 C.ar    1  UNL1        0.0294
      9 N         139.6537  140.1374  162.3857 N.3     1  UNL1       -0.2676
     10 C         140.0587  138.9178  163.1594 C.3     1  UNL1        0.0896
     11 C         139.3073  137.6320  162.9798 C.3     1  UNL1        0.0862
     12 N         138.1510  137.5658  162.0267 N.3     1  UNL1       -0.2951
     13 C         137.7460  138.7854  161.2531 C.3     1  UNL1        0.0862
     14 C         138.4973  140.0712  161.4325 C.3     1  UNL1        0.0896
     15 H         137.3373  137.2784  162.5704 H       1  UNL1        0.1233
     16 C         141.6816  141.6571  161.8132 C.3     1  UNL1        0.0499
     17 C         143.0011  141.5072  162.5105 C.ar    1  UNL1        0.0137
     18 C         143.4161  140.1711  163.0513 C.ar    1  UNL1       -0.0012
     19 C         144.7357  140.0212  163.7486 C.ar    1  UNL1       -0.0001
     20 C         145.6403  141.2074  163.9052 C.ar    1  UNL1        0.0031
     21 C         145.2253  142.5436  163.3643 C.ar    1  UNL1        0.0369
     22 C         143.9058  142.6935  162.6670 C.ar    1  UNL1        0.1428
     23 O         143.4908  144.0297  162.1262 O.3     1  UNL1       -0.4048
     24 C         142.4920  144.8636  162.8726 C.3     1  UNL1        0.5753
     25 F         141.4933  145.6975  163.6190 F       1  UNL1       -0.1328
     26 F         143.3459  144.7848  164.1033 F       1  UNL1       -0.1328
     27 F         141.6382  144.9425  161.6419 F       1  UNL1       -0.1328
@<TRIPOS>BOND
     1     2     3    1
     2     3     4   ar
     3     4     5   ar
     4     5     6   ar
     5     6     1    1
     6     1    16    1
     7    16    17    1
     8    17    18   ar
     9    18    19   ar
    10    19    20   ar
    11    20    21   ar
    12    21    22   ar
    13    22    23    1
    14    23    24    1
    15    24    25    1
    16    24    26    1
    17    24    27    1
    18     1     9    1
    19     9    10    1
    20    10    11    1
    21    11    12    1
    22    12    13    1
    23    13    14    1
    24     6     7   ar
    25     7     8   ar
    26     8     3   ar
    27    22    17   ar
    28    14     9    1
    29    12    15    1
@<TRIPOS>MOLECULE
*****
 27 29 0 0 0
SMALL
GASTEIGER

@<TRIPOS>ATOM
      1 C         141.6209  142.1748  167.2754 C.3     1  UNL1        0.0847
      2 F         146.0773  141.3330  163.3470 F       1  UNL1       -0.2042
      3 C         144.9632  141.5435  164.3291 C.ar    1  UNL1        0.1401
      4 C         144.7870  142.8791  164.9885 C.ar    1  UNL1        0.0294
      5 C         143.6729  143.0896  165.9706 C.ar    1  UNL1       -0.0007
      6 C         142.7350  141.9644  166.2933 C.ar    1  UNL1       -0.0073
      7 C         142.9112  140.6287  165.6339 C.ar    1  UNL1       -0.0007
      8 C         144.0253  140.4182  164.6518 C.ar    1  UNL1        0.0294
      9 N         141.7765  141.7174  168.6954 N.3     1  UNL1       -0.2676
     10 C         140.9055  142.2976  169.7700 C.3     1  UNL1        0.0896
     11 C         141.0612  141.8401  171.1901 C.3     1  UNL1        0.0862
     12 N         142.0877  140.8024  171.5355 N.3     1  UNL1       -0.2951
     13 C         142.9587  140.2222  170.4609 C.3     1  UNL1        0.0862
     14 C         142.8031  140.6796  169.0409 C.3     1  UNL1        0.0896
     15 H         141.5866  140.0227  171.9613 H       1  UNL1        0.1233
     16 C         140.3513  142.8427  166.8375 C.3     1  UNL1        0.0499
     17 C         139.4811  142.1941  165.8020 C.ar    1  UNL1        0.0137
     18 C         139.2086  140.7205  165.8676 C.ar    1  UNL1       -0.0012
     19 C         138.3384  140.0719  164.8322 C.ar    1  UNL1       -0.0001
     20 C         137.7409  140.8968  163.7311 C.ar    1  UNL1        0.0031
     21 C         138.0135  142.3705  163.6655 C.ar    1  UNL1        0.0369
     22 C         138.8836  143.0191  164.7009 C.ar    1  UNL1        0.1428
     23 O         139.1562  144.4926  164.6353 O.3     1  UNL1       -0.4048
     24 C         140.0243  145.0470  163.5448 C.3     1  UNL1        0.5753
     25 F         140.8924  145.6013  162.4544 F       1  UNL1       -0.1328
     26 F         138.8023  145.3787  162.7406 F       1  UNL1       -0.1328
     27 F         141.2462  144.7152  164.3490 F       1  UNL1       -0.1328
@<TRIPOS>BOND
     1     2     3    1
     2     3     4   ar
     3     4     5   ar
     4     5     6   ar
     5     6     1    1
     6     1    16    1
     7    16    17    1
     8    17    18   ar
     9    18    19   ar
    10    19    20   ar
    11    20    21   ar
    12    21    22   ar
    13    22    23    1
    14    23    24    1
    15    24    25    1
    16    24    26    1
    17    24    27    1
    18     1     9    1
    19     9    10    1
    20    10    11    1
    21    11    12    1
    22    12    13    1
    23    13    14    1
    24     6     7   ar
    25     7     8   ar
    26     8     3   ar
    27    22    17   ar
    28    14     9    1
    29    12    15    1
