@<TRIPOS>MOLECULE
*****
 38 42 0 0 0
SMALL
GASTEIGER

@<TRIPOS>ATOM
      1 C         142.1148  144.4463  163.0476 C.ar    1  UNL1        0.1533
      2 C         142.2443  143.6653  164.3217 C.ar    1  UNL1        0.0527
      3 C         141.0562  143.4953  165.2214 C.ar    1  UNL1        0.0511
      4 C         139.7384  144.1064  164.8470 C.ar    1  UNL1        0.0160
      5 C         139.6089  144.8874  163.5729 C.ar    1  UNL1        0.0190
      6 C         140.7970  145.0574  162.6732 C.ar    1  UNL1        0.0850
      7 N         141.1858  142.7143  166.4954 N.pl3   1  UNL1       -0.3040
      8 C         142.2676  141.6849  166.6372 C.3     1  UNL1        0.1123
      9 C         142.3973  140.9038  167.9113 C.3     1  UNL1        0.1149
     10 N         141.4452  141.1522  169.0434 N.am    1  UNL1       -0.2749
     11 C         141.5749  140.3711  170.3175 C.2     1  UNL1        0.2416
     12 O         140.6228  140.6195  171.4497 O.2     1  UNL1       -0.2734
     13 C         140.3634  142.1816  168.9016 C.3     1  UNL1        0.1149
     14 C         140.2337  142.9627  167.6276 C.3     1  UNL1        0.1123
     15 C         142.6566  139.3417  170.4593 C.3     1  UNL1        0.1517
     16 N         143.8391  139.6130  171.3414 N.3     1  UNL1       -0.3135
     17 H         144.3849  140.3815  170.9516 H       1  UNL1        0.1193
     18 H         144.4207  138.7769  171.3970 H       1  UNL1        0.1193
     19 C         144.4523  143.6563  162.2341 C.3     1  UNL1        0.2525
     20 O         143.3029  144.6162  162.1480 O.3     1  UNL1       -0.4701
     21 N         140.6674  145.8384  161.3992 N.pl3   1  UNL1       -0.2802
     22 H         140.5411  146.8142  161.4307 H       1  UNL1        0.1552
     23 C         140.7302  145.1326  160.0771 C.ar    1  UNL1        0.2208
     24 N         141.8070  145.4795  159.0922 N.ar    1  UNL1       -0.2111
     25 C         141.8698  144.7737  157.7701 C.ar    1  UNL1        0.1147
     26 C         140.8557  143.7212  157.4329 C.ar    1  UNL1        0.0960
     27 CL        140.9184  143.0154  156.1108 Cl      1  UNL1       -0.0790
     28 C         139.7787  143.3743  158.4178 C.ar    1  UNL1        0.1138
     29 N         139.7160  144.0801  159.7399 N.ar    1  UNL1       -0.2111
     30 C         138.7646  142.3218  158.0806 C.ar    1  UNL1        0.1031
     31 C         138.5919  141.0071  158.7818 C.ar    1  UNL1        0.1196
     32 N         137.4657  140.2720  158.1175 N.ar    1  UNL1       -0.2248
     33 C         136.9424  141.1324  157.0058 C.ar    1  UNL1        0.1479
     34 C         135.8386  140.9259  156.0113 C.ar    1  UNL1        0.0374
     35 C         135.5376  141.9863  154.9941 C.ar    1  UNL1        0.0046
     36 C         136.3404  143.2532  154.9713 C.ar    1  UNL1        0.0191
     37 C         137.4442  143.4597  155.9658 C.ar    1  UNL1        0.0815
     38 N         137.7452  142.3993  156.9830 N.ar    1  UNL1       -0.2874
@<TRIPOS>BOND
     1    19    20    1
     2    20     1    1
     3     1     2   ar
     4     2     3   ar
     5     3     7    1
     6     7     8    1
     7     8     9    1
     8     9    10    1
     9    10    11   am
    10    11    12    2
    11    11    15    1
    12    15    16    1
    13    10    13    1
    14    13    14    1
    15     3     4   ar
    16     4     5   ar
    17     5     6   ar
    18     6    21    1
    19    21    23    1
    20    23    24   ar
    21    24    25   ar
    22    25    26   ar
    23    26    27    1
    24    26    28   ar
    25    28    30    1
    26    30    31   ar
    27    31    32   ar
    28    32    33   ar
    29    33    34   ar
    30    34    35   ar
    31    35    36   ar
    32    36    37   ar
    33    37    38   ar
    34    28    29   ar
    35     6     1   ar
    36    29    23   ar
    37    14     7    1
    38    38    30   ar
    39    38    33   ar
    40    16    17    1
    41    16    18    1
    42    21    22    1
@<TRIPOS>MOLECULE
*****
 38 42 0 0 0
SMALL
GASTEIGER

@<TRIPOS>ATOM
      1 C         137.9462  140.8923  163.2747 C.ar    1  UNL1        0.1533
      2 C         138.5990  141.3070  164.5601 C.ar    1  UNL1        0.0527
      3 C         139.3218  140.2923  165.3956 C.ar    1  UNL1        0.0511
      4 C         139.3918  138.8630  164.9459 C.ar    1  UNL1        0.0160
      5 C         138.7390  138.4484  163.6607 C.ar    1  UNL1        0.0190
      6 C         138.0162  139.4630  162.8250 C.ar    1  UNL1        0.0850
      7 N         139.9745  140.7071  166.6809 N.pl3   1  UNL1       -0.3040
      8 C         140.9474  141.8488  166.6936 C.3     1  UNL1        0.1123
      9 C         141.6002  142.2636  167.9789 C.3     1  UNL1        0.1149
     10 N         141.2801  141.5367  169.2513 N.am    1  UNL1       -0.2749
     11 C         141.9329  141.9514  170.5366 C.2     1  UNL1        0.2416
     12 O         141.6129  141.2245  171.8091 O.2     1  UNL1       -0.2734
     13 C         140.3073  140.3950  169.2385 C.3     1  UNL1        0.1149
     14 C         139.6545  139.9802  167.9533 C.3     1  UNL1        0.1123
     15 C         142.9057  143.0931  170.5493 C.3     1  UNL1        0.1517
     16 N         144.3552  142.8468  170.2520 N.3     1  UNL1       -0.3135
     17 H         144.7600  142.2693  170.9889 H       1  UNL1        0.1193
     18 H         144.8495  143.7379  170.2081 H       1  UNL1        0.1193
     19 C         137.9245  143.1616  162.0099 C.3     1  UNL1        0.2525
     20 O         137.2235  141.9069  162.4392 O.3     1  UNL1       -0.4701
     21 N         137.3634  139.0482  161.5398 N.pl3   1  UNL1       -0.2802
     22 H         136.4834  138.6073  161.5546 H       1  UNL1        0.1552
     23 C         138.0515  139.3054  160.2320 C.ar    1  UNL1        0.2208
     24 N         139.3463  138.6164  159.9176 N.ar    1  UNL1       -0.2111
     25 C         140.0344  138.8735  158.6097 C.ar    1  UNL1        0.1147
     26 C         139.4277  139.8196  157.6163 C.ar    1  UNL1        0.0960
     27 CL        140.1158  140.0768  156.3085 Cl      1  UNL1       -0.0790
     28 C         138.1328  140.5086  157.9308 C.ar    1  UNL1        0.1138
     29 N         137.4448  140.2515  159.2386 N.ar    1  UNL1       -0.2111
     30 C         137.5262  141.4547  156.9374 C.ar    1  UNL1        0.1031
     31 C         136.2824  141.2123  156.1348 C.ar    1  UNL1        0.1196
     32 N         136.0443  142.4171  155.2736 N.ar    1  UNL1       -0.2248
     33 C         137.1409  143.4042  155.5439 C.ar    1  UNL1        0.1479
     34 C         137.4239  144.7677  154.9866 C.ar    1  UNL1        0.0374
     35 C         138.6226  145.5365  155.4576 C.ar    1  UNL1        0.0046
     36 C         139.5385  144.9417  156.4859 C.ar    1  UNL1        0.0191
     37 C         139.2556  143.5782  157.0432 C.ar    1  UNL1        0.0815
     38 N         138.0568  142.8094  156.5722 N.ar    1  UNL1       -0.2874
@<TRIPOS>BOND
     1    19    20    1
     2    20     1    1
     3     1     2   ar
     4     2     3   ar
     5     3     7    1
     6     7     8    1
     7     8     9    1
     8     9    10    1
     9    10    11   am
    10    11    12    2
    11    11    15    1
    12    15    16    1
    13    10    13    1
    14    13    14    1
    15     3     4   ar
    16     4     5   ar
    17     5     6   ar
    18     6    21    1
    19    21    23    1
    20    23    24   ar
    21    24    25   ar
    22    25    26   ar
    23    26    27    1
    24    26    28   ar
    25    28    30    1
    26    30    31   ar
    27    31    32   ar
    28    32    33   ar
    29    33    34   ar
    30    34    35   ar
    31    35    36   ar
    32    36    37   ar
    33    37    38   ar
    34    28    29   ar
    35     6     1   ar
    36    29    23   ar
    37    14     7    1
    38    38    30   ar
    39    38    33   ar
    40    16    17    1
    41    16    18    1
    42    21    22    1
@<TRIPOS>MOLECULE
*****
 38 42 0 0 0
SMALL
GASTEIGER

@<TRIPOS>ATOM
      1 C         142.2218  138.2551  163.2808 C.ar    1  UNL1        0.1533
      2 C         141.7164  138.8227  164.5741 C.ar    1  UNL1        0.0527
      3 C         142.6221  139.6552  165.4325 C.ar    1  UNL1        0.0511
      4 C         144.0330  139.9201  164.9977 C.ar    1  UNL1        0.0160
      5 C         144.5383  139.3525  163.7045 C.ar    1  UNL1        0.0190
      6 C         143.6327  138.5200  162.8460 C.ar    1  UNL1        0.0850
      7 N         142.1167  140.2227  166.7257 N.pl3   1  UNL1       -0.3040
      8 C         141.3835  141.5313  166.7347 C.3     1  UNL1        0.1123
      9 C         140.8780  142.0989  168.0280 C.3     1  UNL1        0.1149
     10 N         141.1058  141.3580  169.3121 N.am    1  UNL1       -0.2749
     11 C         140.6004  141.9255  170.6054 C.2     1  UNL1        0.2416
     12 O         140.8281  141.1845  171.8895 O.2     1  UNL1       -0.2734
     13 C         141.8389  140.0494  169.3031 C.3     1  UNL1        0.1149
     14 C         142.3444  139.4817  168.0099 C.3     1  UNL1        0.1123
     15 C         139.8672  143.2341  170.6144 C.3     1  UNL1        0.1517
     16 N         138.7765  143.4758  171.6154 N.3     1  UNL1       -0.3135
     17 H         137.9973  142.8449  171.4281 H       1  UNL1        0.1193
     18 H         138.4568  144.4417  171.5432 H       1  UNL1        0.1193
     19 C         139.8280  137.5696  162.5393 C.3     1  UNL1        0.2525
     20 O         141.3162  137.4227  162.4224 O.3     1  UNL1       -0.4701
     21 N         144.1381  137.9525  161.5528 N.pl3   1  UNL1       -0.2802
     22 H         144.7762  137.2028  161.5602 H       1  UNL1        0.1552
     23 C         143.6714  138.5271  160.2482 C.ar    1  UNL1        0.2208
     24 N         143.9526  139.9629  159.9177 N.ar    1  UNL1       -0.2111
     25 C         143.4859  140.5376  158.6131 C.ar    1  UNL1        0.1147
     26 C         142.7379  139.6764  157.6390 C.ar    1  UNL1        0.0960
     27 CL        142.2711  140.2510  156.3345 Cl      1  UNL1       -0.0790
     28 C         142.4567  138.2404  157.9696 C.ar    1  UNL1        0.1138
     29 N         142.9234  137.6659  159.2741 N.ar    1  UNL1       -0.2111
     30 C         141.7087  137.3792  156.9955 C.ar    1  UNL1        0.1031
     31 C         140.3163  137.6214  156.4928 C.ar    1  UNL1        0.1196
     32 N         139.9689  136.5165  155.5397 N.ar    1  UNL1       -0.2248
     33 C         141.1465  135.5914  155.4533 C.ar    1  UNL1        0.1479
     34 C         141.3786  134.3324  154.6717 C.ar    1  UNL1        0.0374
     35 C         142.6860  133.6066  154.7898 C.ar    1  UNL1        0.0046
     36 C         143.7612  134.1398  155.6895 C.ar    1  UNL1        0.0191
     37 C         143.5291  135.3988  156.4712 C.ar    1  UNL1        0.0815
     38 N         142.2218  136.1246  156.3531 N.ar    1  UNL1       -0.2874
@<TRIPOS>BOND
     1    19    20    1
     2    20     1    1
     3     1     2   ar
     4     2     3   ar
     5     3     7    1
     6     7     8    1
     7     8     9    1
     8     9    10    1
     9    10    11   am
    10    11    12    2
    11    11    15    1
    12    15    16    1
    13    10    13    1
    14    13    14    1
    15     3     4   ar
    16     4     5   ar
    17     5     6   ar
    18     6    21    1
    19    21    23    1
    20    23    24   ar
    21    24    25   ar
    22    25    26   ar
    23    26    27    1
    24    26    28   ar
    25    28    30    1
    26    30    31   ar
    27    31    32   ar
    28    32    33   ar
    29    33    34   ar
    30    34    35   ar
    31    35    36   ar
    32    36    37   ar
    33    37    38   ar
    34    28    29   ar
    35     6     1   ar
    36    29    23   ar
    37    14     7    1
    38    38    30   ar
    39    38    33   ar
    40    16    17    1
    41    16    18    1
    42    21    22    1
@<TRIPOS>MOLECULE
*****
 38 42 0 0 0
SMALL
GASTEIGER

@<TRIPOS>ATOM
      1 C         137.9625  140.8807  163.2273 C.ar    1  UNL1        0.1533
      2 C         138.6067  141.2998  164.5156 C.ar    1  UNL1        0.0527
      3 C         139.3088  140.2848  165.3681 C.ar    1  UNL1        0.0511
      4 C         139.3668  138.8507  164.9324 C.ar    1  UNL1        0.0160
      5 C         138.7226  138.4315  163.6442 C.ar    1  UNL1        0.0190
      6 C         138.0204  139.4465  162.7917 C.ar    1  UNL1        0.0850
      7 N         139.9529  140.7040  166.6562 N.pl3   1  UNL1       -0.3040
      8 C         140.9509  141.8239  166.6660 C.3     1  UNL1        0.1123
      9 C         141.5951  142.2432  167.9541 C.3     1  UNL1        0.1149
     10 N         141.2413  141.5426  169.2323 N.am    1  UNL1       -0.2749
     11 C         141.8855  141.9619  170.5206 C.2     1  UNL1        0.2416
     12 O         141.5317  141.2613  171.7989 O.2     1  UNL1       -0.2734
     13 C         140.2434  140.4228  169.2226 C.3     1  UNL1        0.1149
     14 C         139.5992  140.0035  167.9345 C.3     1  UNL1        0.1123
     15 C         142.8834  143.0817  170.5303 C.3     1  UNL1        0.1517
     16 N         144.3276  142.8019  170.2375 N.3     1  UNL1       -0.3135
     17 H         144.7180  142.2190  170.9779 H       1  UNL1        0.1193
     18 H         144.8417  143.6816  170.1907 H       1  UNL1        0.1193
     19 C         138.0569  142.8862  161.5784 C.3     1  UNL1        0.2525
     20 O         137.2603  141.8957  162.3748 O.3     1  UNL1       -0.4701
     21 N         137.3763  139.0273  161.5035 N.pl3   1  UNL1       -0.2802
     22 H         136.4961  138.5864  161.5140 H       1  UNL1        0.1552
     23 C         138.0732  139.2798  160.1995 C.ar    1  UNL1        0.2208
     24 N         139.3749  138.5971  159.9003 N.ar    1  UNL1       -0.2111
     25 C         140.0718  138.8496  158.5962 C.ar    1  UNL1        0.1147
     26 C         139.4669  139.7848  157.5914 C.ar    1  UNL1        0.0960
     27 CL        140.1638  140.0373  156.2873 Cl      1  UNL1       -0.0790
     28 C         138.1652  140.4675  157.8906 C.ar    1  UNL1        0.1138
     29 N         137.4684  140.2149  159.1946 N.ar    1  UNL1       -0.2111
     30 C         137.5604  141.4026  156.8858 C.ar    1  UNL1        0.1031
     31 C         137.5418  142.8999  156.9743 C.ar    1  UNL1        0.1196
     32 N         136.8379  143.4273  155.7592 N.ar    1  UNL1       -0.2248
     33 C         136.4214  142.2560  154.9198 C.ar    1  UNL1        0.1479
     34 C         135.6933  142.1672  153.6114 C.ar    1  UNL1        0.0374
     35 C         135.4117  140.8270  152.9993 C.ar    1  UNL1        0.0046
     36 C         135.8583  139.5757  153.6956 C.ar    1  UNL1        0.0191
     37 C         136.5864  139.6645  155.0040 C.ar    1  UNL1        0.0815
     38 N         136.8679  141.0046  155.6161 N.ar    1  UNL1       -0.2874
@<TRIPOS>BOND
     1    19    20    1
     2    20     1    1
     3     1     2   ar
     4     2     3   ar
     5     3     7    1
     6     7     8    1
     7     8     9    1
     8     9    10    1
     9    10    11   am
    10    11    12    2
    11    11    15    1
    12    15    16    1
    13    10    13    1
    14    13    14    1
    15     3     4   ar
    16     4     5   ar
    17     5     6   ar
    18     6    21    1
    19    21    23    1
    20    23    24   ar
    21    24    25   ar
    22    25    26   ar
    23    26    27    1
    24    26    28   ar
    25    28    30    1
    26    30    31   ar
    27    31    32   ar
    28    32    33   ar
    29    33    34   ar
    30    34    35   ar
    31    35    36   ar
    32    36    37   ar
    33    37    38   ar
    34    28    29   ar
    35     6     1   ar
    36    29    23   ar
    37    14     7    1
    38    38    30   ar
    39    38    33   ar
    40    16    17    1
    41    16    18    1
    42    21    22    1
@<TRIPOS>MOLECULE
*****
 38 42 0 0 0
SMALL
GASTEIGER

@<TRIPOS>ATOM
      1 C         139.7901  144.0696  162.8394 C.ar    1  UNL1        0.1533
      2 C         139.9488  143.2395  164.0787 C.ar    1  UNL1        0.0527
      3 C         141.2267  143.2981  164.8621 C.ar    1  UNL1        0.0511
      4 C         142.3458  144.1868  164.4062 C.ar    1  UNL1        0.0160
      5 C         142.1871  145.0168  163.1669 C.ar    1  UNL1        0.0190
      6 C         140.9092  144.9582  162.3835 C.ar    1  UNL1        0.0850
      7 N         141.3853  142.4680  166.1013 N.pl3   1  UNL1       -0.3040
      8 C         140.5193  142.7327  167.2972 C.3     1  UNL1        0.1123
      9 C         140.6779  141.9026  168.5365 C.3     1  UNL1        0.1149
     10 N         141.7025  140.8080  168.5799 N.am    1  UNL1       -0.2749
     11 C         141.8611  139.9779  169.8192 C.2     1  UNL1        0.2416
     12 O         142.8857  138.8832  169.8627 O.2     1  UNL1       -0.2734
     13 C         142.5685  140.5433  167.3841 C.3     1  UNL1        0.1149
     14 C         142.4099  141.3734  166.1448 C.3     1  UNL1        0.1123
     15 C         140.9951  140.2425  171.0151 C.3     1  UNL1        0.1517
     16 N         139.7363  139.4527  171.2190 N.3     1  UNL1       -0.3135
     17 H         139.0730  139.6723  170.4760 H       1  UNL1        0.1193
     18 H         139.3270  139.6925  172.1220 H       1  UNL1        0.1193
     19 C         138.1933  142.7996  161.2309 C.3     1  UNL1        0.2525
     20 O         138.5123  144.0110  162.0560 O.3     1  UNL1       -0.4701
     21 N         140.7506  145.7883  161.1442 N.pl3   1  UNL1       -0.2802
     22 H         140.4948  146.7363  161.2161 H       1  UNL1        0.1552
     23 C         140.9816  145.1741  159.7954 C.ar    1  UNL1        0.2208
     24 N         142.3437  144.6658  159.4261 N.ar    1  UNL1       -0.2111
     25 C         142.5747  144.0516  158.0772 C.ar    1  UNL1        0.1147
     26 C         141.4436  143.9457  157.0977 C.ar    1  UNL1        0.0960
     27 CL        141.6746  143.3315  155.7489 Cl      1  UNL1       -0.0790
     28 C         140.0814  144.4540  157.4671 C.ar    1  UNL1        0.1138
     29 N         139.8505  145.0682  158.8159 N.ar    1  UNL1       -0.2111
     30 C         138.9504  144.3481  156.4875 C.ar    1  UNL1        0.1031
     31 C         138.6047  145.3520  155.4280 C.ar    1  UNL1        0.1196
     32 N         137.4071  144.8439  154.6812 N.ar    1  UNL1       -0.2248
     33 C         137.0126  143.5261  155.2792 C.ar    1  UNL1        0.1479
     34 C         135.9082  142.5656  154.9515 C.ar    1  UNL1        0.0374
     35 C         135.7575  141.2986  155.7401 C.ar    1  UNL1        0.0046
     36 C         136.7113  140.9921  156.8565 C.ar    1  UNL1        0.0191
     37 C         137.8158  141.9526  157.1842 C.ar    1  UNL1        0.0815
     38 N         137.9664  143.2196  156.3956 N.ar    1  UNL1       -0.2874
@<TRIPOS>BOND
     1    19    20    1
     2    20     1    1
     3     1     2   ar
     4     2     3   ar
     5     3     7    1
     6     7     8    1
     7     8     9    1
     8     9    10    1
     9    10    11   am
    10    11    12    2
    11    11    15    1
    12    15    16    1
    13    10    13    1
    14    13    14    1
    15     3     4   ar
    16     4     5   ar
    17     5     6   ar
    18     6    21    1
    19    21    23    1
    20    23    24   ar
    21    24    25   ar
    22    25    26   ar
    23    26    27    1
    24    26    28   ar
    25    28    30    1
    26    30    31   ar
    27    31    32   ar
    28    32    33   ar
    29    33    34   ar
    30    34    35   ar
    31    35    36   ar
    32    36    37   ar
    33    37    38   ar
    34    28    29   ar
    35     6     1   ar
    36    29    23   ar
    37    14     7    1
    38    38    30   ar
    39    38    33   ar
    40    16    17    1
    41    16    18    1
    42    21    22    1
@<TRIPOS>MOLECULE
*****
 38 42 0 0 0
SMALL
GASTEIGER

@<TRIPOS>ATOM
      1 C         138.0146  141.2286  163.2434 C.ar    1  UNL1        0.1533
      2 C         138.6798  141.5769  164.5420 C.ar    1  UNL1        0.0527
      3 C         139.3232  140.5021  165.3671 C.ar    1  UNL1        0.0511
      4 C         139.3015  139.0789  164.8936 C.ar    1  UNL1        0.0160
      5 C         138.6363  138.7306  163.5951 C.ar    1  UNL1        0.0190
      6 C         137.9929  139.8055  162.7699 C.ar    1  UNL1        0.0850
      7 N         139.9883  140.8504  166.6656 N.pl3   1  UNL1       -0.3040
      8 C         140.9832  141.9716  166.7215 C.3     1  UNL1        0.1123
      9 C         141.6484  142.3201  168.0201 C.3     1  UNL1        0.1149
     10 N         141.3186  141.5473  169.2626 N.am    1  UNL1       -0.2749
     11 C         141.9837  141.8957  170.5613 C.2     1  UNL1        0.2416
     12 O         141.6540  141.1230  171.8039 O.2     1  UNL1       -0.2734
     13 C         140.3237  140.4261  169.2068 C.3     1  UNL1        0.1149
     14 C         139.6585  140.0777  167.9083 C.3     1  UNL1        0.1123
     15 C         142.9786  143.0169  170.6172 C.3     1  UNL1        0.1517
     16 N         144.4045  142.7749  170.2193 N.3     1  UNL1       -0.3135
     17 H         144.8371  142.1297  170.8803 H       1  UNL1        0.1193
     18 H         144.9135  143.6587  170.2241 H       1  UNL1        0.1193
     19 C         137.7628  143.7376  162.6178 C.3     1  UNL1        0.2525
     20 O         137.3712  142.3034  162.4183 O.3     1  UNL1       -0.4701
     21 N         137.3278  139.4571  161.4714 N.pl3   1  UNL1       -0.2802
     22 H         136.4275  139.0586  161.4708 H       1  UNL1        0.1552
     23 C         138.0342  139.7158  160.1737 C.ar    1  UNL1        0.2208
     24 N         137.6060  140.8586  159.3015 N.ar    1  UNL1       -0.2111
     25 C         138.3125  141.1173  158.0038 C.ar    1  UNL1        0.1147
     26 C         139.4471  140.2333  157.5784 C.ar    1  UNL1        0.0960
     27 CL        140.1536  140.4920  156.2807 Cl      1  UNL1       -0.0790
     28 C         139.8754  139.0905  158.4506 C.ar    1  UNL1        0.1138
     29 N         139.1689  138.8318  159.7482 N.ar    1  UNL1       -0.2111
     30 C         141.0101  138.2065  158.0252 C.ar    1  UNL1        0.1031
     31 C         142.3382  138.0847  158.7117 C.ar    1  UNL1        0.1196
     32 N         143.1648  137.0920  157.9493 N.ar    1  UNL1       -0.2248
     33 C         142.3475  136.6003  156.7915 C.ar    1  UNL1        0.1479
     34 C         142.6439  135.6143  155.7007 C.ar    1  UNL1        0.0374
     35 C         141.6087  135.3172  154.6567 C.ar    1  UNL1        0.0046
     36 C         140.2770  136.0060  154.7036 C.ar    1  UNL1        0.0191
     37 C         139.9806  136.9919  155.7945 C.ar    1  UNL1        0.0815
     38 N         141.0159  137.2891  156.8384 N.ar    1  UNL1       -0.2874
@<TRIPOS>BOND
     1    19    20    1
     2    20     1    1
     3     1     2   ar
     4     2     3   ar
     5     3     7    1
     6     7     8    1
     7     8     9    1
     8     9    10    1
     9    10    11   am
    10    11    12    2
    11    11    15    1
    12    15    16    1
    13    10    13    1
    14    13    14    1
    15     3     4   ar
    16     4     5   ar
    17     5     6   ar
    18     6    21    1
    19    21    23    1
    20    23    24   ar
    21    24    25   ar
    22    25    26   ar
    23    26    27    1
    24    26    28   ar
    25    28    30    1
    26    30    31   ar
    27    31    32   ar
    28    32    33   ar
    29    33    34   ar
    30    34    35   ar
    31    35    36   ar
    32    36    37   ar
    33    37    38   ar
    34    28    29   ar
    35     6     1   ar
    36    29    23   ar
    37    14     7    1
    38    38    30   ar
    39    38    33   ar
    40    16    17    1
    41    16    18    1
    42    21    22    1
@<TRIPOS>MOLECULE
*****
 38 42 0 0 0
SMALL
GASTEIGER

@<TRIPOS>ATOM
      1 C         141.5509  138.0396  163.1383 C.ar    1  UNL1        0.1533
      2 C         141.2189  138.6867  164.4503 C.ar    1  UNL1        0.0527
      3 C         142.2783  139.4292  165.2095 C.ar    1  UNL1        0.0511
      4 C         143.6695  139.5246  164.6570 C.ar    1  UNL1        0.0160
      5 C         144.0014  138.8774  163.3451 C.ar    1  UNL1        0.0190
      6 C         142.9421  138.1349  162.5857 C.ar    1  UNL1        0.0850
      7 N         141.9463  140.0763  166.5214 N.pl3   1  UNL1       -0.3040
      8 C         141.0615  141.2870  166.5577 C.3     1  UNL1        0.1123
      9 C         140.7294  141.9342  167.8696 C.3     1  UNL1        0.1149
     10 N         141.2822  141.3707  169.1450 N.am    1  UNL1       -0.2749
     11 C         140.9503  142.0178  170.4570 C.2     1  UNL1        0.2416
     12 O         141.5031  141.4543  171.7324 O.2     1  UNL1       -0.2734
     13 C         142.1671  140.1600  169.1087 C.3     1  UNL1        0.1149
     14 C         142.4991  139.5128  167.7969 C.3     1  UNL1        0.1123
     15 C         140.0654  143.2285  170.4933 C.3     1  UNL1        0.1517
     16 N         138.9329  143.3006  171.4742 N.3     1  UNL1       -0.3135
     17 H         138.2390  142.5889  171.2452 H       1  UNL1        0.1193
     18 H         138.5012  144.2236  171.4279 H       1  UNL1        0.1193
     19 C         139.5930  138.0339  161.4305 C.3     1  UNL1        0.2525
     20 O         140.4915  137.2971  162.3790 O.3     1  UNL1       -0.4701
     21 N         143.2741  137.4878  161.2739 N.pl3   1  UNL1       -0.2802
     22 H         143.6358  136.5723  161.2542 H       1  UNL1        0.1552
     23 C         143.0550  138.2354  159.9920 C.ar    1  UNL1        0.2208
     24 N         142.9750  137.4895  158.6931 N.ar    1  UNL1       -0.2111
     25 C         142.7560  138.2371  157.4113 C.ar    1  UNL1        0.1147
     26 C         142.6170  139.7306  157.4284 C.ar    1  UNL1        0.0960
     27 CL        142.3979  140.4782  156.1466 Cl      1  UNL1       -0.0790
     28 C         142.6970  140.4765  158.7274 C.ar    1  UNL1        0.1138
     29 N         142.9160  139.7288  160.0092 N.ar    1  UNL1       -0.2111
     30 C         142.5580  141.9699  158.7445 C.ar    1  UNL1        0.1031
     31 C         143.3655  142.9399  157.9341 C.ar    1  UNL1        0.1196
     32 N         142.8936  144.3250  158.2638 N.ar    1  UNL1       -0.2248
     33 C         141.7944  144.2111  159.2781 C.ar    1  UNL1        0.1479
     34 C         140.9556  145.2447  159.9694 C.ar    1  UNL1        0.0374
     35 C         139.9093  144.8227  160.9580 C.ar    1  UNL1        0.0046
     36 C         139.7019  143.3671  161.2551 C.ar    1  UNL1        0.0191
     37 C         140.5407  142.3335  160.5637 C.ar    1  UNL1        0.0815
     38 N         141.5869  142.7555  159.5752 N.ar    1  UNL1       -0.2874
@<TRIPOS>BOND
     1    19    20    1
     2    20     1    1
     3     1     2   ar
     4     2     3   ar
     5     3     7    1
     6     7     8    1
     7     8     9    1
     8     9    10    1
     9    10    11   am
    10    11    12    2
    11    11    15    1
    12    15    16    1
    13    10    13    1
    14    13    14    1
    15     3     4   ar
    16     4     5   ar
    17     5     6   ar
    18     6    21    1
    19    21    23    1
    20    23    24   ar
    21    24    25   ar
    22    25    26   ar
    23    26    27    1
    24    26    28   ar
    25    28    30    1
    26    30    31   ar
    27    31    32   ar
    28    32    33   ar
    29    33    34   ar
    30    34    35   ar
    31    35    36   ar
    32    36    37   ar
    33    37    38   ar
    34    28    29   ar
    35     6     1   ar
    36    29    23   ar
    37    14     7    1
    38    38    30   ar
    39    38    33   ar
    40    16    17    1
    41    16    18    1
    42    21    22    1
@<TRIPOS>MOLECULE
*****
 38 42 0 0 0
SMALL
GASTEIGER

@<TRIPOS>ATOM
      1 C         139.7645  138.5311  163.0249 C.ar    1  UNL1        0.1533
      2 C         140.1625  139.1083  164.3511 C.ar    1  UNL1        0.0527
      3 C         139.3661  140.2291  164.9506 C.ar    1  UNL1        0.0511
      4 C         138.1718  140.7728  164.2241 C.ar    1  UNL1        0.0160
      5 C         137.7738  140.1957  162.8980 C.ar    1  UNL1        0.0190
      6 C         138.5702  139.0748  162.2984 C.ar    1  UNL1        0.0850
      7 N         139.7641  140.8062  166.2767 N.pl3   1  UNL1       -0.3040
      8 C         139.7333  139.9489  167.5072 C.3     1  UNL1        0.1123
      9 C         140.1314  140.5260  168.8335 C.3     1  UNL1        0.1149
     10 N         140.5601  141.9601  168.9290 N.am    1  UNL1       -0.2749
     11 C         140.9582  142.5372  170.2551 C.2     1  UNL1        0.2416
     12 O         141.3870  143.9715  170.3507 O.2     1  UNL1       -0.2734
     13 C         140.5909  142.8174  167.6984 C.3     1  UNL1        0.1149
     14 C         140.1929  142.2404  166.3723 C.3     1  UNL1        0.1123
     15 C         140.9274  141.6800  171.4857 C.3     1  UNL1        0.1517
     16 N         142.1297  140.8665  171.8633 N.3     1  UNL1       -0.3135
     17 H         142.2886  140.1470  171.1579 H       1  UNL1        0.1193
     18 H         141.9710  140.4254  172.7692 H       1  UNL1        0.1193
     19 C         141.9372  137.6713  161.8890 C.3     1  UNL1        0.2525
     20 O         140.5609  137.4103  162.4253 O.3     1  UNL1       -0.4701
     21 N         138.1721  138.4978  160.9723 N.pl3   1  UNL1       -0.2802
     22 H         137.5944  137.7015  160.9354 H       1  UNL1        0.1552
     23 C         138.6544  139.1339  159.7023 C.ar    1  UNL1        0.2208
     24 N         137.8121  140.1666  159.0139 N.ar    1  UNL1       -0.2111
     25 C         138.2943  140.8027  157.7440 C.ar    1  UNL1        0.1147
     26 C         139.6189  140.4061  157.1624 C.ar    1  UNL1        0.0960
     27 CL        140.1011  141.0422  155.8924 Cl      1  UNL1       -0.0790
     28 C         140.4612  139.3732  157.8508 C.ar    1  UNL1        0.1138
     29 N         139.9789  138.7372  159.1207 N.ar    1  UNL1       -0.2111
     30 C         141.7858  138.9765  157.2692 C.ar    1  UNL1        0.1031
     31 C         143.0391  139.8003  157.2879 C.ar    1  UNL1        0.1196
     32 N         144.1174  139.0193  156.5971 N.ar    1  UNL1       -0.2248
     33 C         143.5305  137.7128  156.1514 C.ar    1  UNL1        0.1479
     34 C         144.1220  136.5439  155.4211 C.ar    1  UNL1        0.0374
     35 C         143.2725  135.3484  155.1061 C.ar    1  UNL1        0.0046
     36 C         141.8314  135.3220  155.5215 C.ar    1  UNL1        0.0191
     37 C         141.2399  136.4910  156.2519 C.ar    1  UNL1        0.0815
     38 N         142.0894  137.6864  156.5669 N.ar    1  UNL1       -0.2874
@<TRIPOS>BOND
     1    19    20    1
     2    20     1    1
     3     1     2   ar
     4     2     3   ar
     5     3     7    1
     6     7     8    1
     7     8     9    1
     8     9    10    1
     9    10    11   am
    10    11    12    2
    11    11    15    1
    12    15    16    1
    13    10    13    1
    14    13    14    1
    15     3     4   ar
    16     4     5   ar
    17     5     6   ar
    18     6    21    1
    19    21    23    1
    20    23    24   ar
    21    24    25   ar
    22    25    26   ar
    23    26    27    1
    24    26    28   ar
    25    28    30    1
    26    30    31   ar
    27    31    32   ar
    28    32    33   ar
    29    33    34   ar
    30    34    35   ar
    31    35    36   ar
    32    36    37   ar
    33    37    38   ar
    34    28    29   ar
    35     6     1   ar
    36    29    23   ar
    37    14     7    1
    38    38    30   ar
    39    38    33   ar
    40    16    17    1
    41    16    18    1
    42    21    22    1
@<TRIPOS>MOLECULE
*****
 38 42 0 0 0
SMALL
GASTEIGER

@<TRIPOS>ATOM
      1 C         142.7309  143.7697  162.5314 C.ar    1  UNL1        0.1533
      2 C         142.6956  142.9716  163.8010 C.ar    1  UNL1        0.0527
      3 C         141.5207  143.0862  164.7265 C.ar    1  UNL1        0.0511
      4 C         140.3810  143.9988  164.3823 C.ar    1  UNL1        0.0160
      5 C         140.4163  144.7967  163.1127 C.ar    1  UNL1        0.0190
      6 C         141.5912  144.6822  162.1872 C.ar    1  UNL1        0.0850
      7 N         141.4854  142.2882  165.9961 N.pl3   1  UNL1       -0.3040
      8 C         142.7657  141.8315  166.6306 C.3     1  UNL1        0.1123
      9 C         142.7305  141.0334  167.9002 C.3     1  UNL1        0.1149
     10 N         141.4152  140.6921  168.5353 N.am    1  UNL1       -0.2749
     11 C         141.3800  139.8941  169.8049 C.2     1  UNL1        0.2416
     12 O         140.0647  139.5527  170.4400 O.2     1  UNL1       -0.2734
     13 C         140.1350  141.1488  167.9008 C.3     1  UNL1        0.1149
     14 C         140.1701  141.9468  166.6312 C.3     1  UNL1        0.1123
     15 C         142.6602  139.4374  170.4394 C.3     1  UNL1        0.1517
     16 N         143.0421  137.9874  170.3984 N.3     1  UNL1       -0.3135
     17 H         142.3761  137.4447  170.9481 H       1  UNL1        0.1193
     18 H         143.9781  137.8712  170.7868 H       1  UNL1        0.1193
     19 C         144.7572  142.4203  161.6240 C.3     1  UNL1        0.2525
     20 O         143.9058  143.6551  161.6059 O.3     1  UNL1       -0.4701
     21 N         141.6264  145.4802  160.9176 N.pl3   1  UNL1       -0.2802
     22 H         142.1217  146.3305  160.8842 H       1  UNL1        0.1552
     23 C         140.9071  144.9829  159.6989 C.ar    1  UNL1        0.2208
     24 N         140.2415  143.6388  159.7171 N.ar    1  UNL1       -0.2111
     25 C         139.5222  143.1415  158.4984 C.ar    1  UNL1        0.1147
     26 C         139.4685  143.9883  157.2615 C.ar    1  UNL1        0.0960
     27 CL        138.7492  143.4910  156.0428 Cl      1  UNL1       -0.0790
     28 C         140.1341  145.3325  157.2433 C.ar    1  UNL1        0.1138
     29 N         140.8534  145.8297  158.4619 N.ar    1  UNL1       -0.2111
     30 C         140.0804  146.1793  156.0063 C.ar    1  UNL1        0.1031
     31 C         139.0813  147.2612  155.7211 C.ar    1  UNL1        0.1196
     32 N         139.3998  147.8434  154.3759 N.ar    1  UNL1       -0.2248
     33 C         140.5958  147.1214  153.8297 C.ar    1  UNL1        0.1479
     34 C         141.3561  147.2675  152.5450 C.ar    1  UNL1        0.0374
     35 C         142.5371  146.3853  152.2680 C.ar    1  UNL1        0.0046
     36 C         142.9578  145.3568  153.2756 C.ar    1  UNL1        0.0191
     37 C         142.1974  145.2106  154.5603 C.ar    1  UNL1        0.0815
     38 N         141.0164  146.0929  154.8374 N.ar    1  UNL1       -0.2874
@<TRIPOS>BOND
     1    19    20    1
     2    20     1    1
     3     1     2   ar
     4     2     3   ar
     5     3     7    1
     6     7     8    1
     7     8     9    1
     8     9    10    1
     9    10    11   am
    10    11    12    2
    11    11    15    1
    12    15    16    1
    13    10    13    1
    14    13    14    1
    15     3     4   ar
    16     4     5   ar
    17     5     6   ar
    18     6    21    1
    19    21    23    1
    20    23    24   ar
    21    24    25   ar
    22    25    26   ar
    23    26    27    1
    24    26    28   ar
    25    28    30    1
    26    30    31   ar
    27    31    32   ar
    28    32    33   ar
    29    33    34   ar
    30    34    35   ar
    31    35    36   ar
    32    36    37   ar
    33    37    38   ar
    34    28    29   ar
    35     6     1   ar
    36    29    23   ar
    37    14     7    1
    38    38    30   ar
    39    38    33   ar
    40    16    17    1
    41    16    18    1
    42    21    22    1
