@<TRIPOS>MOLECULE
*****
 28 31 0 0 0
SMALL
GASTEIGER

@<TRIPOS>ATOM
      1 C         140.2889  144.4663  170.1320 C.3     1  UNL1        0.0597
      2 C         140.9359  143.2608  169.5171 C.2     1  UNL1        0.1396
      3 N         140.3060  142.3344  168.5195 N.2     1  UNL1       -0.2224
      4 C         141.3072  141.2711  168.1777 C.3     1  UNL1        0.2807
      5 N         142.5560  141.5403  168.9638 N.2     1  UNL1       -0.0447
      6 C         142.3265  142.7700  169.7917 C.2     1  UNL1        0.3285
      7 N         143.3142  143.3986  170.7294 N.pl3   1  UNL1       -0.2454
      8 H         144.2074  143.0005  170.8428 H       1  UNL1        0.2885
      9 H         143.0692  144.2092  171.2315 H       1  UNL1        0.2885
     10 C         140.2203  140.7572  167.2808 C.ar    1  UNL1        0.0440
     11 C         139.3575  139.6143  167.7270 C.ar    1  UNL1        0.0017
     12 C         138.2705  139.1003  166.8300 C.ar    1  UNL1       -0.0001
     13 C         138.0464  139.7293  165.4869 C.ar    1  UNL1        0.0001
     14 C         138.9093  140.8723  165.0406 C.ar    1  UNL1        0.0029
     15 C         139.9962  141.3862  165.9376 C.ar    1  UNL1        0.0018
     16 C         138.6852  141.5013  163.6975 C.ar    1  UNL1        0.0384
     17 C         139.0554  140.7563  162.4493 C.ar    1  UNL1        0.1022
     18 N         138.8313  141.3854  161.1061 N.ar    1  UNL1       -0.2224
     19 C         138.2370  142.7593  161.0112 C.ar    1  UNL1        0.1989
     20 N         137.8668  143.5043  162.2593 N.ar    1  UNL1       -0.2224
     21 C         138.0909  142.8753  163.6025 C.ar    1  UNL1        0.1022
     22 C         142.0812  140.1004  167.6483 C.3     1  UNL1        0.1042
     23 C         142.9988  140.2767  166.4748 C.ar    1  UNL1       -0.0156
     24 C         143.3392  141.6546  165.9893 C.ar    1  UNL1       -0.0040
     25 C         144.2568  141.8309  164.8159 C.ar    1  UNL1       -0.0003
     26 C         144.8340  140.6293  164.1280 C.ar    1  UNL1       -0.0000
     27 C         144.4936  139.2515  164.6135 C.ar    1  UNL1       -0.0003
     28 C         143.5760  139.0752  165.7869 C.ar    1  UNL1       -0.0040
@<TRIPOS>BOND
     1     1     2    1
     2     2     3    2
     3     3     4    1
     4     4    22    1
     5    22    23    1
     6    23    24   ar
     7    24    25   ar
     8    25    26   ar
     9    26    27   ar
    10    27    28   ar
    11     4    10    1
    12    10    11   ar
    13    11    12   ar
    14    12    13   ar
    15    13    14   ar
    16    14    16    1
    17    16    17   ar
    18    17    18   ar
    19    18    19   ar
    20    19    20   ar
    21    20    21   ar
    22    14    15   ar
    23     4     5    1
    24     5     6    2
    25     6     7    1
    26     6     2    1
    27    28    23   ar
    28    15    10   ar
    29    21    16   ar
    30     7     8    1
    31     7     9    1
@<TRIPOS>MOLECULE
*****
 28 31 0 0 0
SMALL
GASTEIGER

@<TRIPOS>ATOM
      1 C         141.7123  141.8117  171.1576 C.3     1  UNL1        0.0597
      2 C         141.1097  141.4945  169.8211 C.2     1  UNL1        0.1396
      3 N         141.5950  141.9967  168.4935 N.2     1  UNL1       -0.2224
      4 C         140.7013  141.4320  167.4294 C.3     1  UNL1        0.2807
      5 N         139.6637  140.5807  168.0993 N.2     1  UNL1       -0.0447
      6 C         139.9161  140.6193  169.5774 C.2     1  UNL1        0.3285
      7 N         139.1155  139.9077  170.6274 N.pl3   1  UNL1       -0.2454
      8 H         138.3448  139.3532  170.3672 H       1  UNL1        0.2885
      9 H         139.3608  139.9952  171.5769 H       1  UNL1        0.2885
     10 C         141.5909  142.1987  166.4963 C.ar    1  UNL1        0.0440
     11 C         143.0632  142.2889  166.7685 C.ar    1  UNL1        0.0017
     12 C         143.9528  143.0557  165.8354 C.ar    1  UNL1       -0.0001
     13 C         143.3701  143.7322  164.6301 C.ar    1  UNL1        0.0001
     14 C         141.8977  143.6420  164.3579 C.ar    1  UNL1        0.0029
     15 C         141.0082  142.8752  165.2910 C.ar    1  UNL1        0.0018
     16 C         141.3150  144.3184  163.1526 C.ar    1  UNL1        0.0384
     17 C         142.1238  144.4372  161.8949 C.ar    1  UNL1        0.1022
     18 N         141.5410  145.1136  160.6896 N.ar    1  UNL1       -0.2224
     19 C         140.1496  145.6714  160.7419 C.ar    1  UNL1        0.1989
     20 N         139.3408  145.5527  161.9996 N.ar    1  UNL1       -0.2224
     21 C         139.9235  144.8762  163.2049 C.ar    1  UNL1        0.1022
     22 C         139.9936  141.0275  166.1703 C.3     1  UNL1        0.1042
     23 C         140.2592  139.6837  165.5592 C.ar    1  UNL1       -0.0156
     24 C         139.1338  138.9010  164.9502 C.ar    1  UNL1       -0.0040
     25 C         139.3994  137.5571  164.3391 C.ar    1  UNL1       -0.0003
     26 C         140.7905  136.9959  164.3370 C.ar    1  UNL1       -0.0000
     27 C         141.9159  137.7786  164.9459 C.ar    1  UNL1       -0.0003
     28 C         141.6503  139.1225  165.5571 C.ar    1  UNL1       -0.0040
@<TRIPOS>BOND
     1     1     2    1
     2     2     3    2
     3     3     4    1
     4     4    22    1
     5    22    23    1
     6    23    24   ar
     7    24    25   ar
     8    25    26   ar
     9    26    27   ar
    10    27    28   ar
    11     4    10    1
    12    10    11   ar
    13    11    12   ar
    14    12    13   ar
    15    13    14   ar
    16    14    16    1
    17    16    17   ar
    18    17    18   ar
    19    18    19   ar
    20    19    20   ar
    21    20    21   ar
    22    14    15   ar
    23     4     5    1
    24     5     6    2
    25     6     7    1
    26     6     2    1
    27    28    23   ar
    28    15    10   ar
    29    21    16   ar
    30     7     8    1
    31     7     9    1
@<TRIPOS>MOLECULE
*****
 28 31 0 0 0
SMALL
GASTEIGER

@<TRIPOS>ATOM
      1 C         140.1643  140.4445  170.6214 C.3     1  UNL1        0.0597
      2 C         141.0517  140.0412  169.4813 C.2     1  UNL1        0.1396
      3 N         140.6305  139.8791  168.0507 N.2     1  UNL1       -0.2224
      4 C         141.8345  139.4669  167.2568 C.3     1  UNL1        0.2807
      5 N         142.9999  139.3742  168.1966 N.2     1  UNL1       -0.0447
      6 C         142.5160  139.7291  169.5714 C.2     1  UNL1        0.3285
      7 N         143.3502  139.7655  170.8176 N.pl3   1  UNL1       -0.2454
      8 H         144.3083  139.5431  170.7753 H       1  UNL1        0.2885
      9 H         142.9395  140.0117  171.6778 H       1  UNL1        0.2885
     10 C         140.8791  139.4738  166.1004 C.ar    1  UNL1        0.0440
     11 C         140.4474  138.1799  165.4766 C.ar    1  UNL1        0.0017
     12 C         139.4920  138.1868  164.3202 C.ar    1  UNL1       -0.0001
     13 C         138.9683  139.4877  163.7877 C.ar    1  UNL1        0.0001
     14 C         139.4001  140.7817  164.4116 C.ar    1  UNL1        0.0029
     15 C         140.3555  140.7747  165.5680 C.ar    1  UNL1        0.0018
     16 C         138.8765  142.0825  163.8792 C.ar    1  UNL1        0.0384
     17 C         138.3482  142.1609  162.4775 C.ar    1  UNL1        0.1022
     18 N         137.8245  143.4618  161.9450 N.ar    1  UNL1       -0.2224
     19 C         137.8292  144.6843  162.8142 C.ar    1  UNL1        0.1989
     20 N         138.3575  144.6059  164.2159 N.ar    1  UNL1       -0.2224
     21 C         138.8812  143.3050  164.7484 C.ar    1  UNL1        0.1022
     22 C         142.8388  139.0561  166.2212 C.3     1  UNL1        0.1042
     23 C         143.6400  140.0982  165.4985 C.ar    1  UNL1       -0.0156
     24 C         144.6057  139.6910  164.4253 C.ar    1  UNL1       -0.0040
     25 C         145.4068  140.7331  163.7026 C.ar    1  UNL1       -0.0003
     26 C         145.2424  142.1823  164.0532 C.ar    1  UNL1       -0.0000
     27 C         144.2768  142.5894  165.1264 C.ar    1  UNL1       -0.0003
     28 C         143.4756  141.5473  165.8491 C.ar    1  UNL1       -0.0040
@<TRIPOS>BOND
     1     1     2    1
     2     2     3    2
     3     3     4    1
     4     4    22    1
     5    22    23    1
     6    23    24   ar
     7    24    25   ar
     8    25    26   ar
     9    26    27   ar
    10    27    28   ar
    11     4    10    1
    12    10    11   ar
    13    11    12   ar
    14    12    13   ar
    15    13    14   ar
    16    14    16    1
    17    16    17   ar
    18    17    18   ar
    19    18    19   ar
    20    19    20   ar
    21    20    21   ar
    22    14    15   ar
    23     4     5    1
    24     5     6    2
    25     6     7    1
    26     6     2    1
    27    28    23   ar
    28    15    10   ar
    29    21    16   ar
    30     7     8    1
    31     7     9    1
@<TRIPOS>MOLECULE
*****
 28 31 0 0 0
SMALL
GASTEIGER

@<TRIPOS>ATOM
      1 C         137.7345  144.5399  163.1926 C.3     1  UNL1        0.0597
      2 C         138.1379  143.0973  163.1148 C.2     1  UNL1        0.1396
      3 N         138.3904  142.1883  164.2811 N.2     1  UNL1       -0.2224
      4 C         138.7681  140.8395  163.7443 C.3     1  UNL1        0.2807
      5 N         138.7491  140.9149  162.2463 N.2     1  UNL1       -0.0447
      6 C         138.3596  142.3103  161.8573 C.2     1  UNL1        0.3285
      7 N         138.2169  142.8278  160.4567 N.pl3   1  UNL1       -0.2454
      8 H         138.3848  142.2310  159.6919 H       1  UNL1        0.2885
      9 H         137.9553  143.7642  160.3021 H       1  UNL1        0.2885
     10 C         138.8706  140.4658  165.1933 C.ar    1  UNL1        0.0440
     11 C         138.0680  139.3181  165.7304 C.ar    1  UNL1        0.0017
     12 C         138.1705  138.9445  167.1796 C.ar    1  UNL1       -0.0001
     13 C         139.0756  139.7185  168.0915 C.ar    1  UNL1        0.0001
     14 C         139.8782  140.8663  167.5544 C.ar    1  UNL1        0.0029
     15 C         139.7757  141.2399  166.1053 C.ar    1  UNL1        0.0018
     16 C         140.7833  141.6403  168.4663 C.ar    1  UNL1        0.0384
     17 C         140.2324  142.2726  169.7100 C.ar    1  UNL1        0.1022
     18 N         141.1375  143.0466  170.6219 N.ar    1  UNL1       -0.2224
     19 C         142.5935  143.1884  170.2902 C.ar    1  UNL1        0.1989
     20 N         143.1444  142.5561  169.0465 N.ar    1  UNL1       -0.2224
     21 C         142.2393  141.7821  168.1346 C.ar    1  UNL1        0.1022
     22 C         139.1673  139.4127  163.5104 C.3     1  UNL1        0.1042
     23 C         140.5390  139.0925  162.9947 C.ar    1  UNL1       -0.0156
     24 C         141.7375  139.7876  163.5696 C.ar    1  UNL1       -0.0040
     25 C         143.1092  139.4674  163.0539 C.ar    1  UNL1       -0.0003
     26 C         143.2824  138.4522  161.9633 C.ar    1  UNL1       -0.0000
     27 C         142.0839  137.7571  161.3885 C.ar    1  UNL1       -0.0003
     28 C         140.7122  138.0773  161.9042 C.ar    1  UNL1       -0.0040
@<TRIPOS>BOND
     1     1     2    1
     2     2     3    2
     3     3     4    1
     4     4    22    1
     5    22    23    1
     6    23    24   ar
     7    24    25   ar
     8    25    26   ar
     9    26    27   ar
    10    27    28   ar
    11     4    10    1
    12    10    11   ar
    13    11    12   ar
    14    12    13   ar
    15    13    14   ar
    16    14    16    1
    17    16    17   ar
    18    17    18   ar
    19    18    19   ar
    20    19    20   ar
    21    20    21   ar
    22    14    15   ar
    23     4     5    1
    24     5     6    2
    25     6     7    1
    26     6     2    1
    27    28    23   ar
    28    15    10   ar
    29    21    16   ar
    30     7     8    1
    31     7     9    1
@<TRIPOS>MOLECULE
*****
 28 31 0 0 0
SMALL
GASTEIGER

@<TRIPOS>ATOM
      1 C         142.9120  138.2555  170.2006 C.3     1  UNL1        0.0597
      2 C         142.1887  139.3903  169.5379 C.2     1  UNL1        0.1396
      3 N         142.6154  140.0961  168.2849 N.2     1  UNL1       -0.2224
      4 C         141.6021  141.1605  167.9844 C.3     1  UNL1        0.2807
      5 N         140.5492  141.1126  169.0517 N.2     1  UNL1       -0.0447
      6 C         140.9117  140.0186  170.0117 C.2     1  UNL1        0.3285
      7 N         140.1338  139.6224  171.2315 N.pl3   1  UNL1       -0.2454
      8 H         139.3026  140.0974  171.4610 H       1  UNL1        0.2885
      9 H         140.4545  138.8873  171.8026 H       1  UNL1        0.2885
     10 C         142.4817  141.4433  166.8027 C.ar    1  UNL1        0.0440
     11 C         143.3411  142.6724  166.7846 C.ar    1  UNL1        0.0017
     12 C         144.2207  142.9551  165.6028 C.ar    1  UNL1       -0.0001
     13 C         144.2407  142.0087  164.4393 C.ar    1  UNL1        0.0001
     14 C         143.3812  140.7795  164.4574 C.ar    1  UNL1        0.0029
     15 C         142.5017  140.4968  165.6392 C.ar    1  UNL1        0.0018
     16 C         143.4013  139.8330  163.2939 C.ar    1  UNL1        0.0384
     17 C         144.3316  140.0788  162.1432 C.ar    1  UNL1        0.1022
     18 N         144.3517  139.1323  160.9797 N.ar    1  UNL1       -0.2224
     19 C         143.4414  137.9402  160.9669 C.ar    1  UNL1        0.1989
     20 N         142.5111  137.6944  162.1176 N.ar    1  UNL1       -0.2224
     21 C         142.4910  138.6409  163.2811 C.ar    1  UNL1        0.1022
     22 C         140.7728  142.2840  167.4370 C.3     1  UNL1        0.1042
     23 C         139.8216  142.0315  166.3049 C.ar    1  UNL1       -0.0156
     24 C         139.5259  143.1207  165.3167 C.ar    1  UNL1       -0.0040
     25 C         138.5747  142.8682  164.1847 C.ar    1  UNL1       -0.0003
     26 C         137.9193  141.5266  164.0408 C.ar    1  UNL1       -0.0000
     27 C         138.2150  140.4375  165.0289 C.ar    1  UNL1       -0.0003
     28 C         139.1662  140.6900  166.1610 C.ar    1  UNL1       -0.0040
@<TRIPOS>BOND
     1     1     2    1
     2     2     3    2
     3     3     4    1
     4     4    22    1
     5    22    23    1
     6    23    24   ar
     7    24    25   ar
     8    25    26   ar
     9    26    27   ar
    10    27    28   ar
    11     4    10    1
    12    10    11   ar
    13    11    12   ar
    14    12    13   ar
    15    13    14   ar
    16    14    16    1
    17    16    17   ar
    18    17    18   ar
    19    18    19   ar
    20    19    20   ar
    21    20    21   ar
    22    14    15   ar
    23     4     5    1
    24     5     6    2
    25     6     7    1
    26     6     2    1
    27    28    23   ar
    28    15    10   ar
    29    21    16   ar
    30     7     8    1
    31     7     9    1
@<TRIPOS>MOLECULE
*****
 28 31 0 0 0
SMALL
GASTEIGER

@<TRIPOS>ATOM
      1 C         144.7283  139.1761  164.7358 C.3     1  UNL1        0.0597
      2 C         143.4215  138.7717  164.1204 C.2     1  UNL1        0.1396
      3 N         142.0928  138.7367  164.8157 N.2     1  UNL1       -0.2224
      4 C         141.0641  138.2746  163.8267 C.3     1  UNL1        0.2807
      5 N         141.7570  138.0240  162.5201 N.2     1  UNL1       -0.0447
      6 C         143.2139  138.3312  162.7017 C.2     1  UNL1        0.3285
      7 N         144.2767  138.2178  161.6492 N.pl3   1  UNL1       -0.2454
      8 H         144.0408  137.9180  160.7417 H       1  UNL1        0.2885
      9 H         145.2102  138.4433  161.8660 H       1  UNL1        0.2885
     10 C         140.1147  138.4356  164.9767 C.ar    1  UNL1        0.0440
     11 C         138.9167  137.5403  165.0913 C.ar    1  UNL1        0.0017
     12 C         137.9672  137.7014  166.2414 C.ar    1  UNL1       -0.0001
     13 C         138.2158  138.7577  167.2769 C.ar    1  UNL1        0.0001
     14 C         139.4139  139.6531  167.1624 C.ar    1  UNL1        0.0029
     15 C         140.3633  139.4919  166.0123 C.ar    1  UNL1        0.0018
     16 C         139.6625  140.7094  168.1979 C.ar    1  UNL1        0.0384
     17 C         140.3500  141.9867  167.8161 C.ar    1  UNL1        0.1022
     18 N         140.5986  143.0431  168.8516 N.ar    1  UNL1       -0.2224
     19 C         140.1597  142.8221  170.2689 C.ar    1  UNL1        0.1989
     20 N         139.4722  141.5448  170.6506 N.ar    1  UNL1       -0.2224
     21 C         139.2236  140.4884  169.6151 C.ar    1  UNL1        0.1022
     22 C         139.8369  137.8461  163.0781 C.3     1  UNL1        0.1042
     23 C         139.2578  138.7338  162.0167 C.ar    1  UNL1       -0.0156
     24 C         139.4302  138.3822  160.5687 C.ar    1  UNL1       -0.0040
     25 C         138.8510  139.2699  159.5073 C.ar    1  UNL1       -0.0003
     26 C         138.0994  140.5092  159.8939 C.ar    1  UNL1       -0.0000
     27 C         137.9270  140.8607  161.3419 C.ar    1  UNL1       -0.0003
     28 C         138.5062  139.9730  162.4033 C.ar    1  UNL1       -0.0040
@<TRIPOS>BOND
     1     1     2    1
     2     2     3    2
     3     3     4    1
     4     4    22    1
     5    22    23    1
     6    23    24   ar
     7    24    25   ar
     8    25    26   ar
     9    26    27   ar
    10    27    28   ar
    11     4    10    1
    12    10    11   ar
    13    11    12   ar
    14    12    13   ar
    15    13    14   ar
    16    14    16    1
    17    16    17   ar
    18    17    18   ar
    19    18    19   ar
    20    19    20   ar
    21    20    21   ar
    22    14    15   ar
    23     4     5    1
    24     5     6    2
    25     6     7    1
    26     6     2    1
    27    28    23   ar
    28    15    10   ar
    29    21    16   ar
    30     7     8    1
    31     7     9    1
@<TRIPOS>MOLECULE
*****
 28 31 0 0 0
SMALL
GASTEIGER

@<TRIPOS>ATOM
      1 C         142.9517  143.0060  170.5082 C.3     1  UNL1        0.0597
      2 C         142.1388  142.5113  169.3487 C.2     1  UNL1        0.1396
      3 N         142.6347  142.3058  167.9480 N.2     1  UNL1       -0.2224
      4 C         141.4896  141.8028  167.1199 C.3     1  UNL1        0.2807
      5 N         140.2859  141.6976  168.0087 N.2     1  UNL1       -0.0447
      6 C         140.6871  142.1354  169.3862 C.2     1  UNL1        0.3285
      7 N         139.7936  142.1882  170.5898 N.pl3   1  UNL1       -0.2454
      8 H         138.8494  141.9196  170.5141 H       1  UNL1        0.2885
      9 H         140.1512  142.4913  171.4555 H       1  UNL1        0.2885
     10 C         142.4979  141.8030  166.0094 C.ar    1  UNL1        0.0440
     11 C         143.5977  142.8228  165.9951 C.ar    1  UNL1        0.0017
     12 C         144.6061  142.8229  164.8845 C.ar    1  UNL1       -0.0001
     13 C         144.5146  141.8031  163.7883 C.ar    1  UNL1        0.0001
     14 C         143.4147  140.7833  163.8026 C.ar    1  UNL1        0.0029
     15 C         142.4064  140.7833  164.9132 C.ar    1  UNL1        0.0018
     16 C         143.3231  139.7635  162.7063 C.ar    1  UNL1        0.0384
     17 C         142.3075  138.6628  162.7889 C.ar    1  UNL1        0.1022
     18 N         142.2160  137.6430  161.6927 N.ar    1  UNL1       -0.2224
     19 C         143.1401  137.7241  160.5139 C.ar    1  UNL1        0.1989
     20 N         144.1557  138.8249  160.4313 N.ar    1  UNL1       -0.2224
     21 C         144.2472  139.8446  161.5275 C.ar    1  UNL1        0.1022
     22 C         140.5553  141.3000  166.0597 C.3     1  UNL1        0.1042
     23 C         139.6130  142.2481  165.3792 C.ar    1  UNL1       -0.0156
     24 C         138.5058  141.7164  164.5181 C.ar    1  UNL1       -0.0040
     25 C         137.5635  142.6645  163.8376 C.ar    1  UNL1       -0.0003
     26 C         137.7285  144.1445  164.0182 C.ar    1  UNL1       -0.0000
     27 C         138.8357  144.6762  164.8792 C.ar    1  UNL1       -0.0003
     28 C         139.7779  143.7280  165.5597 C.ar    1  UNL1       -0.0040
@<TRIPOS>BOND
     1     1     2    1
     2     2     3    2
     3     3     4    1
     4     4    22    1
     5    22    23    1
     6    23    24   ar
     7    24    25   ar
     8    25    26   ar
     9    26    27   ar
    10    27    28   ar
    11     4    10    1
    12    10    11   ar
    13    11    12   ar
    14    12    13   ar
    15    13    14   ar
    16    14    16    1
    17    16    17   ar
    18    17    18   ar
    19    18    19   ar
    20    19    20   ar
    21    20    21   ar
    22    14    15   ar
    23     4     5    1
    24     5     6    2
    25     6     7    1
    26     6     2    1
    27    28    23   ar
    28    15    10   ar
    29    21    16   ar
    30     7     8    1
    31     7     9    1
@<TRIPOS>MOLECULE
*****
 28 31 0 0 0
SMALL
GASTEIGER

@<TRIPOS>ATOM
      1 C         141.6924  143.2515  169.9969 C.3     1  UNL1        0.0597
      2 C         141.7686  142.0240  169.1382 C.2     1  UNL1        0.1396
      3 N         140.9656  141.7643  167.8981 N.2     1  UNL1       -0.2224
      4 C         141.3618  140.4205  167.3622 C.3     1  UNL1        0.2807
      5 N         142.4098  139.8497  168.2710 N.2     1  UNL1       -0.0447
      6 C         142.6612  140.8407  169.3686 C.2     1  UNL1        0.3285
      7 N         143.6343  140.6772  170.4984 N.pl3   1  UNL1       -0.2454
      8 H         144.1789  139.8597  170.5645 H       1  UNL1        0.2885
      9 H         143.7284  141.3873  171.1737 H       1  UNL1        0.2885
     10 C         140.3526  140.7236  166.2947 C.ar    1  UNL1        0.0440
     11 C         139.1353  139.8599  166.1464 C.ar    1  UNL1        0.0017
     12 C         138.1261  140.1631  165.0788 C.ar    1  UNL1       -0.0001
     13 C         138.3343  141.3299  164.1595 C.ar    1  UNL1        0.0001
     14 C         139.5517  142.1937  164.3078 C.ar    1  UNL1        0.0029
     15 C         140.5608  141.8905  165.3754 C.ar    1  UNL1        0.0018
     16 C         139.7599  143.3605  163.3885 C.ar    1  UNL1        0.0384
     17 C         139.0821  143.3916  162.0507 C.ar    1  UNL1        0.1022
     18 N         139.2903  144.5584  161.1314 N.ar    1  UNL1       -0.2224
     19 C         140.1763  145.6942  161.5499 C.ar    1  UNL1        0.1989
     20 N         140.8540  145.6631  162.8877 N.ar    1  UNL1       -0.2224
     21 C         140.6459  144.4963  163.8070 C.ar    1  UNL1        0.1022
     22 C         141.5471  139.1401  166.6032 C.3     1  UNL1        0.1042
     23 C         142.4080  139.1141  165.3751 C.ar    1  UNL1       -0.0156
     24 C         141.9708  138.3367  164.1690 C.ar    1  UNL1       -0.0040
     25 C         142.8317  138.3107  162.9409 C.ar    1  UNL1       -0.0003
     26 C         144.1298  139.0621  162.9189 C.ar    1  UNL1       -0.0000
     27 C         144.5670  139.8394  164.1249 C.ar    1  UNL1       -0.0003
     28 C         143.7061  139.8654  165.3530 C.ar    1  UNL1       -0.0040
@<TRIPOS>BOND
     1     1     2    1
     2     2     3    2
     3     3     4    1
     4     4    22    1
     5    22    23    1
     6    23    24   ar
     7    24    25   ar
     8    25    26   ar
     9    26    27   ar
    10    27    28   ar
    11     4    10    1
    12    10    11   ar
    13    11    12   ar
    14    12    13   ar
    15    13    14   ar
    16    14    16    1
    17    16    17   ar
    18    17    18   ar
    19    18    19   ar
    20    19    20   ar
    21    20    21   ar
    22    14    15   ar
    23     4     5    1
    24     5     6    2
    25     6     7    1
    26     6     2    1
    27    28    23   ar
    28    15    10   ar
    29    21    16   ar
    30     7     8    1
    31     7     9    1
@<TRIPOS>MOLECULE
*****
 28 31 0 0 0
SMALL
GASTEIGER

@<TRIPOS>ATOM
      1 C         140.3655  144.3620  170.3274 C.3     1  UNL1        0.0597
      2 C         140.8652  143.3657  169.3236 C.2     1  UNL1        0.1396
      3 N         140.3254  143.1628  167.9388 N.2     1  UNL1       -0.2224
      4 C         141.1190  142.0692  167.2875 C.3     1  UNL1        0.2807
      5 N         142.1493  141.5962  168.2698 N.2     1  UNL1       -0.0447
      6 C         141.9924  142.3975  169.5281 C.2     1  UNL1        0.3285
      7 N         142.8178  142.2555  170.7725 N.pl3   1  UNL1       -0.2454
      8 H         143.5398  141.5872  170.8107 H       1  UNL1        0.2885
      9 H         142.6376  142.8305  171.5510 H       1  UNL1        0.2885
     10 C         140.2152  142.3247  166.1180 C.ar    1  UNL1        0.0440
     11 C         139.7255  143.7146  165.8382 C.ar    1  UNL1        0.0017
     12 C         138.8217  143.9701  164.6687 C.ar    1  UNL1       -0.0001
     13 C         138.4075  142.8357  163.7790 C.ar    1  UNL1        0.0001
     14 C         138.8972  141.4457  164.0588 C.ar    1  UNL1        0.0029
     15 C         139.8010  141.1903  165.2284 C.ar    1  UNL1        0.0018
     16 C         138.4830  140.3113  163.1691 C.ar    1  UNL1        0.0384
     17 C         137.7625  140.5910  161.8835 C.ar    1  UNL1        0.1022
     18 N         137.3484  139.4566  160.9938 N.ar    1  UNL1       -0.2224
     19 C         137.6547  138.0425  161.3897 C.ar    1  UNL1        0.1989
     20 N         138.3752  137.7629  162.6753 N.ar    1  UNL1       -0.2224
     21 C         138.7894  138.8973  163.5650 C.ar    1  UNL1        0.1022
     22 C         141.7237  141.0290  166.3919 C.3     1  UNL1        0.1042
     23 C         142.9741  141.3367  165.6227 C.ar    1  UNL1       -0.0156
     24 C         143.4619  142.7514  165.5190 C.ar    1  UNL1       -0.0040
     25 C         144.7124  143.0591  164.7498 C.ar    1  UNL1       -0.0003
     26 C         145.4751  141.9520  164.0843 C.ar    1  UNL1       -0.0000
     27 C         144.9873  140.5374  164.1880 C.ar    1  UNL1       -0.0003
     28 C         143.7368  140.2297  164.9572 C.ar    1  UNL1       -0.0040
@<TRIPOS>BOND
     1     1     2    1
     2     2     3    2
     3     3     4    1
     4     4    22    1
     5    22    23    1
     6    23    24   ar
     7    24    25   ar
     8    25    26   ar
     9    26    27   ar
    10    27    28   ar
    11     4    10    1
    12    10    11   ar
    13    11    12   ar
    14    12    13   ar
    15    13    14   ar
    16    14    16    1
    17    16    17   ar
    18    17    18   ar
    19    18    19   ar
    20    19    20   ar
    21    20    21   ar
    22    14    15   ar
    23     4     5    1
    24     5     6    2
    25     6     7    1
    26     6     2    1
    27    28    23   ar
    28    15    10   ar
    29    21    16   ar
    30     7     8    1
    31     7     9    1
