@<TRIPOS>MOLECULE
*****
 35 40 0 0 0
SMALL
GASTEIGER

@<TRIPOS>ATOM
      1 C         139.5996  146.3690  157.5582 C.3     1  UNL1        0.0900
      2 N         140.0902  144.9526  157.6145 N.3     1  UNL1       -0.2649
      3 C         139.7386  144.4840  156.2336 C.3     1  UNL1        0.0788
      4 C         139.6148  143.5582  155.0599 C.3     1  UNL1        0.0628
      5 C         139.7355  142.3002  154.2519 C.ar    1  UNL1        0.0593
      6 C         139.0889  142.9139  153.0456 C.ar    1  UNL1        0.1134
      7 N         139.0381  141.8729  151.9668 N.ar    1  UNL1       -0.2227
      8 C         139.6534  140.6158  152.5065 C.ar    1  UNL1        0.1786
      9 N         140.0844  140.8799  153.9187 N.ar    1  UNL1       -0.3082
     10 C         140.6143  139.4891  154.1053 C.3     1  UNL1        0.1341
     11 C         141.2538  138.3157  154.7867 C.ar    1  UNL1        0.0035
     12 C         141.5842  136.8676  154.3778 C.ar    1  UNL1       -0.0015
     13 C         142.2290  135.7201  155.0969 C.ar    1  UNL1        0.0131
     14 C         142.6933  135.8882  156.5134 C.ar    1  UNL1        0.1028
     15 C         142.5128  137.2040  157.2105 C.ar    1  UNL1        0.1545
     16 C         141.9165  137.5181  155.8705 C.ar    1  UNL1        0.0358
     17 O         142.9622  137.4160  158.6259 O.3     1  UNL1       -0.4528
     18 C         143.2040  138.1252  159.9252 C.ar    1  UNL1        0.1454
     19 C         143.8931  137.7074  161.4243 C.ar    1  UNL1        0.0375
     20 C         144.0780  138.5260  162.6675 C.ar    1  UNL1        0.0032
     21 C         143.6170  139.9530  162.7014 C.ar    1  UNL1        0.0014
     22 C         143.8202  140.7374  163.9637 C.ar    1  UNL1        0.0001
     23 C         143.3732  142.1674  164.0383 C.ar    1  UNL1        0.0013
     24 C         142.7229  142.8127  162.8505 C.ar    1  UNL1        0.0149
     25 C         142.5197  142.0283  161.5883 C.ar    1  UNL1        0.0539
     26 C         142.9667  140.5984  161.5137 C.ar    1  UNL1        0.0167
     27 C         143.2056  139.2360  160.9332 C.ar    1  UNL1        0.0387
     28 N         141.9248  143.3326  161.1468 N.am    1  UNL1       -0.2575
     29 C         141.6632  144.7103  161.6792 C.3     1  UNL1        0.1001
     30 C         141.0006  145.5079  160.5953 C.3     1  UNL1        0.0472
     31 C         140.6221  144.9006  159.0160 C.3     1  UNL1        0.1371
     32 C         141.2625  144.3352  160.2490 C.2     1  UNL1        0.2439
     33 O         141.3169  144.8459  160.8586 O.2     1  UNL1       -0.2731
     34 C         143.3381  134.7407  157.2325 C.1     1  UNL1        0.1035
     35 N         143.9830  133.5930  157.9516 N.1     1  UNL1       -0.1907
@<TRIPOS>BOND
     1     1     2    1
     2     2     3    1
     3     3     4    1
     4     4     5    1
     5     5     6   ar
     6     6     7   ar
     7     7     8   ar
     8     8     9   ar
     9     9    10    1
    10    10    11    1
    11    11    12   ar
    12    12    13   ar
    13    13    14   ar
    14    14    34    1
    15    34    35    3
    16    14    15   ar
    17    15    16   ar
    18    15    17    1
    19    17    18    1
    20    18    19   ar
    21    19    20   ar
    22    20    21   ar
    23    21    22   ar
    24    22    23   ar
    25    23    24   ar
    26    24    25   ar
    27    25    26   ar
    28    26    27   ar
    29    25    28    1
    30    28    29    1
    31    29    30    1
    32    31    30    1
    33    31    32    1
    34    32    33    2
    35    31     2    1
    36     9     5   ar
    37    16    11   ar
    38    27    18   ar
    39    32    28   am
    40    26    21   ar
@<TRIPOS>MOLECULE
*****
 35 40 0 0 0
SMALL
GASTEIGER

@<TRIPOS>ATOM
      1 C         143.3351  136.2562  159.3894 C.3     1  UNL1        0.0900
      2 N         142.8147  137.6399  159.1349 N.3     1  UNL1       -0.2649
      3 C         142.6906  137.6170  157.6402 C.3     1  UNL1        0.0788
      4 C         142.3920  138.1058  156.2539 C.3     1  UNL1        0.0628
      5 C         141.9593  139.0401  155.1631 C.ar    1  UNL1        0.0593
      6 C         142.2253  138.0347  154.0821 C.ar    1  UNL1        0.1134
      7 N         141.8813  138.6670  152.7662 N.ar    1  UNL1       -0.2227
      8 C         141.4026  140.0632  153.0338 C.ar    1  UNL1        0.1786
      9 N         141.4508  140.2937  154.5152 N.ar    1  UNL1       -0.3082
     10 C         140.9353  141.6975  154.3976 C.3     1  UNL1        0.1341
     11 C         140.4823  143.0616  154.8264 C.ar    1  UNL1        0.0035
     12 C         139.9663  144.3161  154.0962 C.ar    1  UNL1       -0.0015
     13 C         139.5215  145.6684  154.5688 C.ar    1  UNL1        0.0131
     14 C         139.5345  145.9927  156.0333 C.ar    1  UNL1        0.1028
     15 C         139.9922  144.9647  157.0251 C.ar    1  UNL1        0.1545
     16 C         140.1532  144.2021  155.7435 C.ar    1  UNL1        0.0358
     17 O         140.0212  145.2466  158.4981 O.3     1  UNL1       -0.4528
     18 C         140.2362  145.0096  159.9635 C.ar    1  UNL1        0.1454
     19 C         140.0318  145.9267  161.3825 C.ar    1  UNL1        0.0375
     20 C         140.2888  145.5651  162.8154 C.ar    1  UNL1        0.0032
     21 C         140.8099  144.2023  163.1631 C.ar    1  UNL1        0.0014
     22 C         141.0538  143.8801  164.6077 C.ar    1  UNL1        0.0001
     23 C         141.5746  142.5284  164.9971 C.ar    1  UNL1        0.0013
     24 C         141.8516  141.4989  163.9418 C.ar    1  UNL1        0.0149
     25 C         141.6078  141.8211  162.4973 C.ar    1  UNL1        0.0539
     26 C         141.0870  143.1728  162.1080 C.ar    1  UNL1        0.0167
     27 C         140.6082  144.2857  161.2235 C.ar    1  UNL1        0.0387
     28 N         142.1004  140.4132  162.3390 N.am    1  UNL1       -0.2575
     29 C         142.5865  139.2689  163.1783 C.3     1  UNL1        0.1001
     30 C         142.9156  138.1285  162.2612 C.3     1  UNL1        0.0472
     31 C         142.7476  138.1712  160.5360 C.3     1  UNL1        0.1371
     32 C         142.4983  139.1392  161.6544 C.2     1  UNL1        0.2439
     33 O         142.6643  138.8565  162.3811 O.2     1  UNL1       -0.2731
     34 C         139.0897  147.3450  156.5059 C.1     1  UNL1        0.1035
     35 N         138.6449  148.6974  156.9785 N.1     1  UNL1       -0.1907
@<TRIPOS>BOND
     1     1     2    1
     2     2     3    1
     3     3     4    1
     4     4     5    1
     5     5     6   ar
     6     6     7   ar
     7     7     8   ar
     8     8     9   ar
     9     9    10    1
    10    10    11    1
    11    11    12   ar
    12    12    13   ar
    13    13    14   ar
    14    14    34    1
    15    34    35    3
    16    14    15   ar
    17    15    16   ar
    18    15    17    1
    19    17    18    1
    20    18    19   ar
    21    19    20   ar
    22    20    21   ar
    23    21    22   ar
    24    22    23   ar
    25    23    24   ar
    26    24    25   ar
    27    25    26   ar
    28    26    27   ar
    29    25    28    1
    30    28    29    1
    31    29    30    1
    32    31    30    1
    33    31    32    1
    34    32    33    2
    35    31     2    1
    36     9     5   ar
    37    16    11   ar
    38    27    18   ar
    39    32    28   am
    40    26    21   ar
@<TRIPOS>MOLECULE
*****
 35 40 0 0 0
SMALL
GASTEIGER

@<TRIPOS>ATOM
      1 C         138.4955  138.1254  152.0553 C.3     1  UNL1        0.0900
      2 N         139.1321  138.7310  153.2710 N.3     1  UNL1       -0.2649
      3 C         139.8313  137.5329  153.8418 C.3     1  UNL1        0.0788
      4 C         140.6700  136.7192  154.7822 C.3     1  UNL1        0.0628
      5 C         141.5350  136.3998  155.9654 C.ar    1  UNL1        0.0593
      6 C         141.6718  134.9563  155.5810 C.ar    1  UNL1        0.1134
      7 N         142.5307  134.2822  156.6095 N.ar    1  UNL1       -0.2227
      8 C         142.9248  135.3090  157.6295 C.ar    1  UNL1        0.1786
      9 N         142.3094  136.6178  157.2314 N.ar    1  UNL1       -0.3082
     10 C         142.8887  137.3437  158.4093 C.3     1  UNL1        0.1341
     11 C         143.1945  138.4796  159.3400 C.ar    1  UNL1        0.0035
     12 C         144.0082  138.6327  160.6391 C.ar    1  UNL1       -0.0015
     13 C         144.2888  139.7964  161.5429 C.ar    1  UNL1        0.0131
     14 C         143.7164  141.1465  161.2271 C.ar    1  UNL1        0.1028
     15 C         142.8634  141.3328  160.0075 C.ar    1  UNL1        0.1545
     16 C         143.1857  139.8720  159.8978 C.ar    1  UNL1        0.0358
     17 O         142.2711  142.6648  159.6540 O.3     1  UNL1       -0.4528
     18 C         141.4888  143.6881  158.8853 C.ar    1  UNL1        0.1454
     19 C         141.1591  145.3480  159.0653 C.ar    1  UNL1        0.0375
     20 C         140.3458  146.2728  158.2090 C.ar    1  UNL1        0.0032
     21 C         139.6728  145.7532  156.9733 C.ar    1  UNL1        0.0014
     22 C         138.8686  146.7102  156.1442 C.ar    1  UNL1        0.0001
     23 C         138.1800  146.2301  154.9010 C.ar    1  UNL1        0.0013
     24 C         138.2957  144.7929  154.4871 C.ar    1  UNL1        0.0149
     25 C         139.0998  143.8359  155.3162 C.ar    1  UNL1        0.0539
     26 C         139.7884  144.3161  156.5594 C.ar    1  UNL1        0.0167
     27 C         140.6222  144.2645  157.8051 C.ar    1  UNL1        0.0387
     28 N         138.6496  142.8889  154.2436 N.am    1  UNL1       -0.2575
     29 C         137.8254  142.8865  152.9904 C.3     1  UNL1        0.1001
     30 C         137.8342  141.4941  152.4326 C.3     1  UNL1        0.0472
     31 C         138.6669  140.1516  153.1470 C.3     1  UNL1        0.1371
     32 C         138.4985  141.6029  153.4865 C.2     1  UNL1        0.2439
     33 O         138.0490  142.0139  152.9722 O.2     1  UNL1       -0.2731
     34 C         143.9971  142.3102  162.1310 C.1     1  UNL1        0.1035
     35 N         144.2778  143.4740  163.0348 N.1     1  UNL1       -0.1907
@<TRIPOS>BOND
     1     1     2    1
     2     2     3    1
     3     3     4    1
     4     4     5    1
     5     5     6   ar
     6     6     7   ar
     7     7     8   ar
     8     8     9   ar
     9     9    10    1
    10    10    11    1
    11    11    12   ar
    12    12    13   ar
    13    13    14   ar
    14    14    34    1
    15    34    35    3
    16    14    15   ar
    17    15    16   ar
    18    15    17    1
    19    17    18    1
    20    18    19   ar
    21    19    20   ar
    22    20    21   ar
    23    21    22   ar
    24    22    23   ar
    25    23    24   ar
    26    24    25   ar
    27    25    26   ar
    28    26    27   ar
    29    25    28    1
    30    28    29    1
    31    29    30    1
    32    31    30    1
    33    31    32    1
    34    32    33    2
    35    31     2    1
    36     9     5   ar
    37    16    11   ar
    38    27    18   ar
    39    32    28   am
    40    26    21   ar
@<TRIPOS>MOLECULE
*****
 35 40 0 0 0
SMALL
GASTEIGER

@<TRIPOS>ATOM
      1 C         139.5275  147.0139  160.1253 C.3     1  UNL1        0.0900
      2 N         139.9622  145.5933  159.9177 N.3     1  UNL1       -0.2649
      3 C         140.2637  145.6094  158.4483 C.3     1  UNL1        0.0788
      4 C         140.6842  145.1012  157.1012 C.3     1  UNL1        0.0628
      5 C         141.1669  144.1374  156.0581 C.ar    1  UNL1        0.0593
      6 C         141.1118  145.1633  154.9652 C.ar    1  UNL1        0.1134
      7 N         141.5575  144.5081  153.6915 N.ar    1  UNL1       -0.2227
      8 C         141.8881  143.0773  153.9973 C.ar    1  UNL1        0.1786
      9 N         141.6467  142.8482  155.4599 N.ar    1  UNL1       -0.3082
     10 C         142.0587  141.4077  155.3875 C.3     1  UNL1        0.1341
     11 C         142.3473  140.0105  155.8506 C.ar    1  UNL1        0.0035
     12 C         142.8442  138.7201  155.1715 C.ar    1  UNL1       -0.0015
     13 C         143.1205  137.3353  155.6774 C.ar    1  UNL1        0.0131
     14 C         142.9085  137.0098  157.1262 C.ar    1  UNL1        0.1028
     15 C         142.4203  138.0692  158.0692 C.ar    1  UNL1        0.1545
     16 C         142.4735  138.8452  156.7866 C.ar    1  UNL1        0.0358
     17 O         142.1948  137.7874  159.5252 O.3     1  UNL1       -0.4528
     18 C         141.8275  138.0378  160.9577 C.ar    1  UNL1        0.1454
     19 C         141.7887  137.1040  162.3801 C.ar    1  UNL1        0.0375
     20 C         141.3937  137.4821  163.7769 C.ar    1  UNL1        0.0032
     21 C         140.9456  138.8818  164.0768 C.ar    1  UNL1        0.0014
     22 C         140.5591  139.2194  165.4863 C.ar    1  UNL1        0.0001
     23 C         140.1055  140.6079  165.8274 C.ar    1  UNL1        0.0013
     24 C         140.0384  141.6587  164.7590 C.ar    1  UNL1        0.0149
     25 C         140.4249  141.3211  163.3496 C.ar    1  UNL1        0.0539
     26 C         140.8785  139.9325  163.0085 C.ar    1  UNL1        0.0167
     27 C         141.3681  138.7866  162.1736 C.ar    1  UNL1        0.0387
     28 N         140.0685  142.7645  163.1509 N.am    1  UNL1       -0.2575
     29 C         139.5795  143.9424  163.9404 C.3     1  UNL1        0.1001
     30 C         139.4533  145.1076  163.0044 C.3     1  UNL1        0.0472
     31 C         139.8204  145.0553  161.3106 C.3     1  UNL1        0.1371
     32 C         139.8575  144.0679  162.4392 C.2     1  UNL1        0.2439
     33 O         139.6298  144.3615  163.1445 O.2     1  UNL1       -0.2731
     34 C         143.1848  135.6250  157.6321 C.1     1  UNL1        0.1035
     35 N         143.4610  134.2401  158.1380 N.1     1  UNL1       -0.1907
@<TRIPOS>BOND
     1     1     2    1
     2     2     3    1
     3     3     4    1
     4     4     5    1
     5     5     6   ar
     6     6     7   ar
     7     7     8   ar
     8     8     9   ar
     9     9    10    1
    10    10    11    1
    11    11    12   ar
    12    12    13   ar
    13    13    14   ar
    14    14    34    1
    15    34    35    3
    16    14    15   ar
    17    15    16   ar
    18    15    17    1
    19    17    18    1
    20    18    19   ar
    21    19    20   ar
    22    20    21   ar
    23    21    22   ar
    24    22    23   ar
    25    23    24   ar
    26    24    25   ar
    27    25    26   ar
    28    26    27   ar
    29    25    28    1
    30    28    29    1
    31    29    30    1
    32    31    30    1
    33    31    32    1
    34    32    33    2
    35    31     2    1
    36     9     5   ar
    37    16    11   ar
    38    27    18   ar
    39    32    28   am
    40    26    21   ar
@<TRIPOS>MOLECULE
*****
 35 40 0 0 0
SMALL
GASTEIGER

@<TRIPOS>ATOM
      1 C         136.9810  143.3388  156.4870 C.3     1  UNL1        0.0900
      2 N         137.9026  142.1773  156.7141 N.3     1  UNL1       -0.2649
      3 C         137.5799  141.3316  155.5179 C.3     1  UNL1        0.0788
      4 C         137.6396  140.1732  154.5669 C.3     1  UNL1        0.0628
      5 C         138.0735  138.8586  153.9892 C.ar    1  UNL1        0.0593
      6 C         137.1442  138.9721  152.8172 C.ar    1  UNL1        0.1134
      7 N         137.3194  137.7490  151.9668 N.ar    1  UNL1       -0.2227
      8 C         138.3569  136.8796  152.6131 C.ar    1  UNL1        0.1786
      9 N         138.8230  137.5654  153.8631 N.ar    1  UNL1       -0.3082
     10 C         139.7868  136.4682  154.2054 C.3     1  UNL1        0.1341
     11 C         140.8349  135.7153  154.9700 C.ar    1  UNL1        0.0035
     12 C         141.5680  134.3740  154.7785 C.ar    1  UNL1       -0.0015
     13 C         142.6167  133.6551  155.5743 C.ar    1  UNL1        0.0131
     14 C         143.1454  134.2623  156.8400 C.ar    1  UNL1        0.1028
     15 C         142.6252  135.5885  157.3098 C.ar    1  UNL1        0.1545
     16 C         141.8256  135.4082  156.0535 C.ar    1  UNL1        0.0358
     17 O         143.1257  136.2318  158.5690 O.3     1  UNL1       -0.4528
     18 C         143.2594  137.2512  159.6611 C.ar    1  UNL1        0.1454
     19 C         144.1960  137.3975  161.0746 C.ar    1  UNL1        0.0375
     20 C         144.2353  138.4895  162.1022 C.ar    1  UNL1        0.0032
     21 C         143.3475  139.6896  161.9557 C.ar    1  UNL1        0.0014
     22 C         143.4170  140.7595  163.0048 C.ar    1  UNL1        0.0001
     23 C         142.5454  141.9754  162.8949 C.ar    1  UNL1        0.0013
     24 C         141.6045  142.1214  161.7359 C.ar    1  UNL1        0.0149
     25 C         141.5350  141.0515  160.6868 C.ar    1  UNL1        0.0539
     26 C         142.4065  139.8356  160.7967 C.ar    1  UNL1        0.0167
     27 C         143.0084  138.5092  160.4387 C.ar    1  UNL1        0.0387
     28 N         140.5116  141.9926  160.1238 N.am    1  UNL1       -0.2575
     29 C         139.8784  143.3160  160.4362 C.3     1  UNL1        0.1001
     30 C         138.8876  143.6231  159.3526 C.3     1  UNL1        0.0472
     31 C         138.5639  142.5963  157.9935 C.3     1  UNL1        0.1371
     32 C         139.4745  142.5318  159.1837 C.2     1  UNL1        0.2439
     33 O         139.4246  143.1584  159.6740 O.2     1  UNL1       -0.2731
     34 C         144.1941  133.5434  157.6357 C.1     1  UNL1        0.1035
     35 N         145.2429  132.8244  158.4315 N.1     1  UNL1       -0.1907
@<TRIPOS>BOND
     1     1     2    1
     2     2     3    1
     3     3     4    1
     4     4     5    1
     5     5     6   ar
     6     6     7   ar
     7     7     8   ar
     8     8     9   ar
     9     9    10    1
    10    10    11    1
    11    11    12   ar
    12    12    13   ar
    13    13    14   ar
    14    14    34    1
    15    34    35    3
    16    14    15   ar
    17    15    16   ar
    18    15    17    1
    19    17    18    1
    20    18    19   ar
    21    19    20   ar
    22    20    21   ar
    23    21    22   ar
    24    22    23   ar
    25    23    24   ar
    26    24    25   ar
    27    25    26   ar
    28    26    27   ar
    29    25    28    1
    30    28    29    1
    31    29    30    1
    32    31    30    1
    33    31    32    1
    34    32    33    2
    35    31     2    1
    36     9     5   ar
    37    16    11   ar
    38    27    18   ar
    39    32    28   am
    40    26    21   ar
@<TRIPOS>MOLECULE
*****
 35 40 0 0 0
SMALL
GASTEIGER

@<TRIPOS>ATOM
      1 C         139.1946  143.4506  160.1864 C.3     1  UNL1        0.0900
      2 N         139.4923  142.2126  159.3935 N.3     1  UNL1       -0.2649
      3 C         140.5543  141.5867  160.2483 C.3     1  UNL1        0.0788
      4 C         141.5822  140.5903  160.6962 C.3     1  UNL1        0.0628
      5 C         142.4373  139.3581  160.6769 C.ar    1  UNL1        0.0593
      6 C         143.1219  139.7118  161.9638 C.ar    1  UNL1        0.1134
      7 N         144.1118  138.6287  162.2751 N.ar    1  UNL1       -0.2227
      8 C         144.0391  137.6056  161.1806 C.ar    1  UNL1        0.1786
      9 N         143.0041  138.0564  160.1928 N.ar    1  UNL1       -0.3082
     10 C         143.2061  136.8611  159.3094 C.3     1  UNL1        0.1341
     11 C         143.0159  135.9336  158.1460 C.ar    1  UNL1        0.0035
     12 C         143.6415  134.5957  157.7077 C.ar    1  UNL1       -0.0015
     13 C         143.4191  133.6968  156.5277 C.ar    1  UNL1        0.0131
     14 C         142.4041  134.0638  155.4859 C.ar    1  UNL1        0.1028
     15 C         141.6115  135.3298  155.6243 C.ar    1  UNL1        0.1545
     16 C         142.4594  135.3991  156.8597 C.ar    1  UNL1        0.0358
     17 O         140.5869  135.7351  154.6065 O.3     1  UNL1       -0.4528
     18 C         139.5239  136.5603  153.9439 C.ar    1  UNL1        0.1454
     19 C         138.5913  136.4243  152.5268 C.ar    1  UNL1        0.0375
     20 C         137.5410  137.3370  151.9668 C.ar    1  UNL1        0.0032
     21 C         137.1786  138.5983  152.6932 C.ar    1  UNL1        0.0014
     22 C         136.1232  139.4840  152.0999 C.ar    1  UNL1        0.0001
     23 C         135.7322  140.7541  152.7955 C.ar    1  UNL1        0.0013
     24 C         136.3964  141.1386  154.0843 C.ar    1  UNL1        0.0149
     25 C         137.4517  140.2530  154.6776 C.ar    1  UNL1        0.0539
     26 C         137.8428  138.9828  153.9820 C.ar    1  UNL1        0.0167
     27 C         138.5661  137.6939  153.7260 C.ar    1  UNL1        0.0387
     28 N         137.4457  141.3328  155.7187 N.am    1  UNL1       -0.2575
     29 C         136.7519  142.6277  156.0213 C.3     1  UNL1        0.1001
     30 C         137.3085  143.1622  157.3076 C.3     1  UNL1        0.0472
     31 C         138.5399  142.3835  158.2474 C.3     1  UNL1        0.1371
     32 C         137.8255  142.0765  156.9647 C.2     1  UNL1        0.2439
     33 O         137.2845  142.6203  156.7479 O.2     1  UNL1       -0.2731
     34 C         142.1817  133.1649  154.3060 C.1     1  UNL1        0.1035
     35 N         141.9594  132.2659  153.1259 N.1     1  UNL1       -0.1907
@<TRIPOS>BOND
     1     1     2    1
     2     2     3    1
     3     3     4    1
     4     4     5    1
     5     5     6   ar
     6     6     7   ar
     7     7     8   ar
     8     8     9   ar
     9     9    10    1
    10    10    11    1
    11    11    12   ar
    12    12    13   ar
    13    13    14   ar
    14    14    34    1
    15    34    35    3
    16    14    15   ar
    17    15    16   ar
    18    15    17    1
    19    17    18    1
    20    18    19   ar
    21    19    20   ar
    22    20    21   ar
    23    21    22   ar
    24    22    23   ar
    25    23    24   ar
    26    24    25   ar
    27    25    26   ar
    28    26    27   ar
    29    25    28    1
    30    28    29    1
    31    29    30    1
    32    31    30    1
    33    31    32    1
    34    32    33    2
    35    31     2    1
    36     9     5   ar
    37    16    11   ar
    38    27    18   ar
    39    32    28   am
    40    26    21   ar
@<TRIPOS>MOLECULE
*****
 35 40 0 0 0
SMALL
GASTEIGER

@<TRIPOS>ATOM
      1 C         139.4311  147.0195  161.2904 C.3     1  UNL1        0.0900
      2 N         139.9710  145.7802  160.6402 N.3     1  UNL1       -0.2649
      3 C         139.9880  146.2082  159.2027 C.3     1  UNL1        0.0788
      4 C         140.2010  146.1230  157.7203 C.3     1  UNL1        0.0628
      5 C         140.5815  145.5360  156.3934 C.ar    1  UNL1        0.0593
      6 C         140.2110  146.7807  155.6427 C.ar    1  UNL1        0.1134
      7 N         140.4784  146.5405  154.1864 N.ar    1  UNL1       -0.2227
      8 C         141.0142  145.1474  154.0371 C.ar    1  UNL1        0.1786
      9 N         141.0779  144.5266  155.4011 N.ar    1  UNL1       -0.3082
     10 C         141.6232  143.2311  154.8774 C.3     1  UNL1        0.1341
     11 C         142.1439  141.8244  154.8931 C.ar    1  UNL1        0.0035
     12 C         142.6420  140.8367  153.8210 C.ar    1  UNL1       -0.0015
     13 C         143.1573  139.4294  153.8825 C.ar    1  UNL1        0.0131
     14 C         143.2575  138.7244  155.2028 C.ar    1  UNL1        0.1028
     15 C         142.8425  139.4269  156.4615 C.ar    1  UNL1        0.1545
     16 C         142.5694  140.4966  155.4460 C.ar    1  UNL1        0.0358
     17 O         142.9262  138.7599  157.8024 O.3     1  UNL1       -0.4528
     18 C         142.8092  138.5856  159.2876 C.ar    1  UNL1        0.1454
     19 C         143.1398  137.3324  160.3907 C.ar    1  UNL1        0.0375
     20 C         142.9751  137.2848  161.8809 C.ar    1  UNL1        0.0032
     21 C         142.4416  138.4791  162.6151 C.ar    1  UNL1        0.0014
     22 C         142.2920  138.3910  164.1050 C.ar    1  UNL1        0.0001
     23 C         141.7621  139.5634  164.8762 C.ar    1  UNL1        0.0013
     24 C         141.3818  140.8239  164.1573 C.ar    1  UNL1        0.0149
     25 C         141.5314  140.9119  162.6674 C.ar    1  UNL1        0.0539
     26 C         142.0613  139.7395  161.8963 C.ar    1  UNL1        0.0167
     27 C         142.5073  138.9275  160.7166 C.ar    1  UNL1        0.0387
     28 N         140.9892  142.2864  162.9258 N.am    1  UNL1       -0.2575
     29 C         140.5318  143.1403  164.0711 C.3     1  UNL1        0.1001
     30 C         140.1062  144.4681  163.5182 C.3     1  UNL1        0.0472
     31 C         140.1525  144.8968  161.8388 C.3     1  UNL1        0.1371
     32 C         140.5079  143.6773  162.6366 C.2     1  UNL1        0.2439
     33 O         140.3859  143.7471  163.4213 O.2     1  UNL1       -0.2731
     34 C         143.7728  137.3171  155.2644 C.1     1  UNL1        0.1035
     35 N         144.2881  135.9097  155.3259 N.1     1  UNL1       -0.1907
@<TRIPOS>BOND
     1     1     2    1
     2     2     3    1
     3     3     4    1
     4     4     5    1
     5     5     6   ar
     6     6     7   ar
     7     7     8   ar
     8     8     9   ar
     9     9    10    1
    10    10    11    1
    11    11    12   ar
    12    12    13   ar
    13    13    14   ar
    14    14    34    1
    15    34    35    3
    16    14    15   ar
    17    15    16   ar
    18    15    17    1
    19    17    18    1
    20    18    19   ar
    21    19    20   ar
    22    20    21   ar
    23    21    22   ar
    24    22    23   ar
    25    23    24   ar
    26    24    25   ar
    27    25    26   ar
    28    26    27   ar
    29    25    28    1
    30    28    29    1
    31    29    30    1
    32    31    30    1
    33    31    32    1
    34    32    33    2
    35    31     2    1
    36     9     5   ar
    37    16    11   ar
    38    27    18   ar
    39    32    28   am
    40    26    21   ar
@<TRIPOS>MOLECULE
*****
 35 40 0 0 0
SMALL
GASTEIGER

@<TRIPOS>ATOM
      1 C         142.1965  139.0893  163.7627 C.3     1  UNL1        0.0900
      2 N         142.0203  139.7877  162.4469 N.3     1  UNL1       -0.2649
      3 C         141.5647  141.1393  162.9112 C.3     1  UNL1        0.0788
      4 C         141.1059  142.5651  162.8291 C.3     1  UNL1        0.0628
      5 C         140.7058  143.8724  162.2120 C.ar    1  UNL1        0.0593
      6 C         140.4467  144.5162  163.5418 C.ar    1  UNL1        0.1134
      7 N         139.9992  145.9264  163.2946 N.ar    1  UNL1       -0.2227
      8 C         139.9818  146.1541  161.8121 C.ar    1  UNL1        0.1786
      9 N         140.4185  144.8847  161.1430 N.ar    1  UNL1       -0.3082
     10 C         140.2828  145.4653  159.7666 C.3     1  UNL1        0.1341
     11 C         140.3170  145.5356  158.2686 C.ar    1  UNL1        0.0035
     12 C         140.0044  146.6231  157.2232 C.ar    1  UNL1       -0.0015
     13 C         140.0528  146.6496  155.7242 C.ar    1  UNL1        0.0131
     14 C         140.4777  145.4271  154.9658 C.ar    1  UNL1        0.1028
     15 C         140.8542  144.1782  155.7064 C.ar    1  UNL1        0.1545
     16 C         140.5164  145.0864  156.8514 C.ar    1  UNL1        0.0358
     17 O         141.2847  142.9337  154.9882 O.3     1  UNL1       -0.4528
     18 C         141.7498  141.5210  154.7938 C.ar    1  UNL1        0.1454
     19 C         142.1186  140.5400  153.4529 C.ar    1  UNL1        0.0375
     20 C         142.5826  139.1148  153.3933 C.ar    1  UNL1        0.0032
     21 C         142.7858  138.3386  154.6607 C.ar    1  UNL1        0.0014
     22 C         143.2506  136.9161  154.5581 C.ar    1  UNL1        0.0001
     23 C         143.4658  136.1059  155.8020 C.ar    1  UNL1        0.0013
     24 C         143.2162  136.7182  157.1484 C.ar    1  UNL1        0.0149
     25 C         142.7515  138.1406  157.2510 C.ar    1  UNL1        0.0539
     26 C         142.5363  138.9509  156.0071 C.ar    1  UNL1        0.0167
     27 C         142.1866  140.1308  155.1495 C.ar    1  UNL1        0.0387
     28 N         142.8031  137.8095  158.7131 N.am    1  UNL1       -0.2575
     29 C         143.1412  136.6601  159.6156 C.3     1  UNL1        0.1001
     30 C         142.9418  137.1093  161.0327 C.3     1  UNL1        0.0472
     31 C         142.4111  138.6927  161.4992 C.3     1  UNL1        0.1371
     32 C         142.6843  138.0022  160.1959 C.2     1  UNL1        0.2439
     33 O         142.9267  137.2460  160.2655 O.2     1  UNL1       -0.2731
     34 C         140.5261  145.4536  153.4668 C.1     1  UNL1        0.1035
     35 N         140.5745  145.4802  151.9678 N.1     1  UNL1       -0.1907
@<TRIPOS>BOND
     1     1     2    1
     2     2     3    1
     3     3     4    1
     4     4     5    1
     5     5     6   ar
     6     6     7   ar
     7     7     8   ar
     8     8     9   ar
     9     9    10    1
    10    10    11    1
    11    11    12   ar
    12    12    13   ar
    13    13    14   ar
    14    14    34    1
    15    34    35    3
    16    14    15   ar
    17    15    16   ar
    18    15    17    1
    19    17    18    1
    20    18    19   ar
    21    19    20   ar
    22    20    21   ar
    23    21    22   ar
    24    22    23   ar
    25    23    24   ar
    26    24    25   ar
    27    25    26   ar
    28    26    27   ar
    29    25    28    1
    30    28    29    1
    31    29    30    1
    32    31    30    1
    33    31    32    1
    34    32    33    2
    35    31     2    1
    36     9     5   ar
    37    16    11   ar
    38    27    18   ar
    39    32    28   am
    40    26    21   ar
@<TRIPOS>MOLECULE
*****
 35 40 0 0 0
SMALL
GASTEIGER

@<TRIPOS>ATOM
      1 C         139.9324  144.6969  164.6149 C.3     1  UNL1        0.0900
      2 N         140.2580  143.8877  163.3946 N.3     1  UNL1       -0.2649
      3 C         140.6239  142.5759  164.0234 C.3     1  UNL1        0.0788
      4 C         141.0601  141.1439  164.1188 C.3     1  UNL1        0.0628
      5 C         141.5076  139.7850  163.6680 C.ar    1  UNL1        0.0593
      6 C         141.5847  139.2539  165.0687 C.ar    1  UNL1        0.1134
      7 N         142.0306  137.8235  164.9981 N.ar    1  UNL1       -0.2227
      8 C         142.2293  137.4706  163.5538 C.ar    1  UNL1        0.1786
      9 N         141.9060  138.6829  162.7317 N.ar    1  UNL1       -0.3082
     10 C         142.2015  137.9862  161.4366 C.3     1  UNL1        0.1341
     11 C         142.3541  137.7893  159.9574 C.ar    1  UNL1        0.0035
     12 C         142.7731  136.6140  159.0539 C.ar    1  UNL1       -0.0015
     13 C         142.9126  136.4608  157.5683 C.ar    1  UNL1        0.0131
     14 C         142.6114  137.6185  156.6634 C.ar    1  UNL1        0.1028
     15 C         142.1706  138.9294  157.2441 C.ar    1  UNL1        0.1545
     16 C         142.3433  138.1185  158.4941 C.ar    1  UNL1        0.0358
     17 O         141.8591  140.1127  156.3763 O.3     1  UNL1       -0.4528
     18 C         141.4511  141.5082  156.0080 C.ar    1  UNL1        0.1454
     19 C         141.2737  142.3754  154.5544 C.ar    1  UNL1        0.0375
     20 C         140.8501  143.7949  154.3184 C.ar    1  UNL1        0.0032
     21 C         140.5053  144.6778  155.4810 C.ar    1  UNL1        0.0014
     22 C         140.0863  146.0910  155.2026 C.ar    1  UNL1        0.0001
     23 C         139.7333  147.0060  156.3376 C.ar    1  UNL1        0.0013
     24 C         139.7994  146.5078  157.7510 C.ar    1  UNL1        0.0149
     25 C         140.2184  145.0947  158.0293 C.ar    1  UNL1        0.0539
     26 C         140.5714  144.1797  156.8943 C.ar    1  UNL1        0.0167
     27 C         141.0016  142.9278  156.1888 C.ar    1  UNL1        0.0387
     28 N         139.9905  145.5492  159.4405 N.am    1  UNL1       -0.2575
     29 C         139.5654  146.7744  160.1943 C.3     1  UNL1        0.1001
     30 C         139.5762  146.4452  161.6577 C.3     1  UNL1        0.0472
     31 C         140.0117  144.9020  162.3174 C.3     1  UNL1        0.1371
     32 C         139.9183  145.4820  160.9372 C.2     1  UNL1        0.2439
     33 O         139.6847  146.2437  160.9126 O.2     1  UNL1       -0.2731
     34 C         142.7509  137.4653  155.1778 C.1     1  UNL1        0.1035
     35 N         142.8904  137.3121  153.6921 N.1     1  UNL1       -0.1907
@<TRIPOS>BOND
     1     1     2    1
     2     2     3    1
     3     3     4    1
     4     4     5    1
     5     5     6   ar
     6     6     7   ar
     7     7     8   ar
     8     8     9   ar
     9     9    10    1
    10    10    11    1
    11    11    12   ar
    12    12    13   ar
    13    13    14   ar
    14    14    34    1
    15    34    35    3
    16    14    15   ar
    17    15    16   ar
    18    15    17    1
    19    17    18    1
    20    18    19   ar
    21    19    20   ar
    22    20    21   ar
    23    21    22   ar
    24    22    23   ar
    25    23    24   ar
    26    24    25   ar
    27    25    26   ar
    28    26    27   ar
    29    25    28    1
    30    28    29    1
    31    29    30    1
    32    31    30    1
    33    31    32    1
    34    32    33    2
    35    31     2    1
    36     9     5   ar
    37    16    11   ar
    38    27    18   ar
    39    32    28   am
    40    26    21   ar
