@<TRIPOS>MOLECULE
*****
 32 36 0 0 0
SMALL
GASTEIGER

@<TRIPOS>ATOM
      1 C         138.7913  138.7980  164.4658 C.3     1  UNL1        0.0730
      2 N         139.3581  139.8949  165.3176 N.3     1  UNL1       -0.2724
      3 C         139.2939  139.9715  166.8142 C.3     1  UNL1        0.0724
      4 C         139.9848  141.2317  167.2440 C.3     1  UNL1        0.0214
      5 C         140.7214  142.5326  167.3661 C.3     1  UNL1        0.0072
      6 C         140.4761  141.9338  166.0129 C.3     1  UNL1        0.0349
      7 C         140.0888  141.1076  164.8223 C.3     1  UNL1        0.0761
      8 C         141.1555  143.0214  165.2347 C.ar    1  UNL1       -0.0176
      9 C         142.6464  143.0072  165.0708 C.ar    1  UNL1       -0.0043
     10 C         143.3259  144.0948  164.2926 C.ar    1  UNL1       -0.0003
     11 C         142.5143  145.1966  163.6783 C.ar    1  UNL1       -0.0001
     12 C         141.0233  145.2108  163.8422 C.ar    1  UNL1        0.0035
     13 C         140.3439  144.1232  164.6203 C.ar    1  UNL1        0.0675
     14 C         138.8529  144.1375  164.7842 C.3     1  UNL1        0.4183
     15 F         137.3621  144.1516  164.9480 F       1  UNL1       -0.1659
     16 F         139.0008  144.9089  166.0621 F       1  UNL1       -0.1659
     17 F         138.3993  143.4669  163.7039 F       1  UNL1       -0.1659
     18 C         138.1465  139.1260  163.1518 C.3     1  UNL1        0.0294
     19 C         138.1750  138.1278  162.0325 C.3     1  UNL1        0.0666
     20 S         139.2254  138.2263  160.9662 S.3     1  UNL1       -0.0756
     21 C         142.7928  139.4934  161.8227 C.ar    1  UNL1        0.2029
     22 N         142.9509  138.0169  162.0349 N.ar    1  UNL1       -0.1250
     23 N         141.6338  137.3626  161.7399 N.ar    1  UNL1       -0.1220
     24 C         140.6617  138.4346  161.3454 C.ar    1  UNL1        0.1933
     25 N         141.3780  139.7515  161.3966 N.ar    1  UNL1       -0.2860
     26 C         140.7838  141.0914  161.0776 C.3     1  UNL1        0.1341
     27 C         144.9562  139.6095  164.2632 C.3     1  UNL1        0.0556
     28 C         144.8562  140.5831  163.1264 C.ar    1  UNL1        0.1001
     29 N         145.7331  141.7810  162.9120 N.ar    1  UNL1       -0.2085
     30 C         145.2807  142.4680  161.6576 C.ar    1  UNL1        0.2849
     31 O         144.1242  141.6947  161.0969 O.2     1  UNL1       -0.4283
     32 C         143.8619  140.5297  162.0047 C.ar    1  UNL1        0.1964
@<TRIPOS>BOND
     1    27    28    1
     2    28    29   ar
     3    29    30   ar
     4    30    31   ar
     5    31    32   ar
     6    32    21    1
     7    21    22   ar
     8    22    23   ar
     9    23    24   ar
    10    24    20    1
    11    20    19    1
    12    19    18    1
    13    18     1    1
    14     1     2    1
    15     2     3    1
    16     3     4    1
    17     4     5    1
    18     5     6    1
    19     6     8    1
    20     8     9   ar
    21     9    10   ar
    22    10    11   ar
    23    11    12   ar
    24    12    13   ar
    25    13    14    1
    26    14    15    1
    27    14    16    1
    28    14    17    1
    29     6     7    1
    30    24    25   ar
    31    25    26    1
    32    32    28   ar
    33    25    21   ar
    34     7     2    1
    35     6     4    1
    36    13     8   ar
@<TRIPOS>MOLECULE
*****
 32 36 0 0 0
SMALL
GASTEIGER

@<TRIPOS>ATOM
      1 C         141.3377  144.3277  161.6808 C.3     1  UNL1        0.0730
      2 N         142.2846  144.0921  162.8201 N.3     1  UNL1       -0.2724
      3 C         143.3154  145.0583  163.3240 C.3     1  UNL1        0.0724
      4 C         144.0348  144.4124  164.4709 C.3     1  UNL1        0.0214
      5 C         144.5617  143.5257  165.5599 C.3     1  UNL1        0.0072
      6 C         143.4486  143.0469  164.6757 C.3     1  UNL1        0.0349
      7 C         142.3670  142.8490  163.6555 C.3     1  UNL1        0.0761
      8 C         143.2983  141.7037  165.3262 C.ar    1  UNL1       -0.0176
      9 C         142.6146  141.5869  166.6562 C.ar    1  UNL1       -0.0043
     10 C         142.4642  140.2436  167.3068 C.ar    1  UNL1       -0.0003
     11 C         142.9975  139.0173  166.6274 C.ar    1  UNL1       -0.0001
     12 C         143.6812  139.1342  165.2973 C.ar    1  UNL1        0.0035
     13 C         143.8316  140.4774  164.6467 C.ar    1  UNL1        0.0675
     14 C         144.5152  140.5942  163.3167 C.3     1  UNL1        0.4183
     15 F         145.1989  140.7111  161.9868 F       1  UNL1       -0.1659
     16 F         143.3007  140.0280  162.6427 F       1  UNL1       -0.1659
     17 F         145.7247  141.1141  163.6158 F       1  UNL1       -0.1659
     18 C         140.3399  145.4452  161.7537 C.3     1  UNL1        0.0294
     19 C         139.2934  145.4474  162.8283 C.3     1  UNL1        0.0666
     20 S         138.3649  144.2782  162.9733 S.3     1  UNL1       -0.0756
     21 C         138.7031  141.1075  165.1863 C.ar    1  UNL1        0.2029
     22 N         139.3970  142.1299  166.0367 N.ar    1  UNL1       -0.1250
     23 N         139.3548  143.4420  165.3113 N.ar    1  UNL1       -0.1220
     24 C         138.6348  143.2306  164.0125 C.ar    1  UNL1        0.1933
     25 N         138.2321  141.7878  163.9353 N.ar    1  UNL1       -0.2860
     26 C         137.4888  141.1392  162.8053 C.3     1  UNL1        0.1341
     27 C         140.2669  138.5934  163.8138 C.3     1  UNL1        0.0556
     28 C         139.2324  138.5035  164.8963 C.ar    1  UNL1        0.1001
     29 N         138.7351  137.2421  165.5379 N.ar    1  UNL1       -0.2085
     30 C         137.7089  137.6182  166.5653 C.ar    1  UNL1        0.2849
     31 O         137.5721  139.1118  166.5587 O.2     1  UNL1       -0.4283
     32 C         138.5136  139.6590  165.5271 C.ar    1  UNL1        0.1964
@<TRIPOS>BOND
     1    27    28    1
     2    28    29   ar
     3    29    30   ar
     4    30    31   ar
     5    31    32   ar
     6    32    21    1
     7    21    22   ar
     8    22    23   ar
     9    23    24   ar
    10    24    20    1
    11    20    19    1
    12    19    18    1
    13    18     1    1
    14     1     2    1
    15     2     3    1
    16     3     4    1
    17     4     5    1
    18     5     6    1
    19     6     8    1
    20     8     9   ar
    21     9    10   ar
    22    10    11   ar
    23    11    12   ar
    24    12    13   ar
    25    13    14    1
    26    14    15    1
    27    14    16    1
    28    14    17    1
    29     6     7    1
    30    24    25   ar
    31    25    26    1
    32    32    28   ar
    33    25    21   ar
    34     7     2    1
    35     6     4    1
    36    13     8   ar
@<TRIPOS>MOLECULE
*****
 32 36 0 0 0
SMALL
GASTEIGER

@<TRIPOS>ATOM
      1 C         143.8212  139.9244  162.8338 C.3     1  UNL1        0.0730
      2 N         142.9397  140.9933  162.2591 N.3     1  UNL1       -0.2724
      3 C         143.0633  141.5974  160.8917 C.3     1  UNL1        0.0724
      4 C         141.9797  142.6233  160.7385 C.3     1  UNL1        0.0214
      5 C         140.8197  143.5639  160.8771 C.3     1  UNL1        0.0072
      6 C         141.1864  142.6532  162.0111 C.3     1  UNL1        0.0349
      7 C         141.7797  141.6459  162.9510 C.3     1  UNL1        0.0761
      8 C         140.1031  143.1154  162.9401 C.ar    1  UNL1       -0.0176
      9 C         138.7972  142.3795  162.9942 C.ar    1  UNL1       -0.0043
     10 C         137.7138  142.8417  163.9231 C.ar    1  UNL1       -0.0003
     11 C         137.9365  144.0397  164.7979 C.ar    1  UNL1       -0.0001
     12 C         139.2426  144.7755  164.7438 C.ar    1  UNL1        0.0035
     13 C         140.3259  144.3134  163.8149 C.ar    1  UNL1        0.0675
     14 C         141.6318  145.0492  163.7608 C.3     1  UNL1        0.4183
     15 F         142.9378  145.7849  163.7067 F       1  UNL1       -0.1659
     16 F         141.0206  146.0666  162.8436 F       1  UNL1       -0.1659
     17 F         142.4500  144.3208  164.5500 F       1  UNL1       -0.1659
     18 C         143.4459  138.4802  162.6810 C.3     1  UNL1        0.0294
     19 C         142.0442  138.1058  162.2998 C.3     1  UNL1        0.0666
     20 S         141.1789  137.3549  163.2680 S.3     1  UNL1       -0.0756
     21 C         139.6235  139.3703  166.1978 C.ar    1  UNL1        0.2029
     22 N         138.4201  139.1421  165.3319 N.ar    1  UNL1       -0.1250
     23 N         138.8563  138.3594  164.1290 N.ar    1  UNL1       -0.1220
     24 C         140.3292  138.1038  164.2515 C.ar    1  UNL1        0.1933
     25 N         140.8033  138.7286  165.5301 N.ar    1  UNL1       -0.2860
     26 C         142.2104  138.7141  166.0497 C.3     1  UNL1        0.1341
     27 C         141.0112  142.2747  166.7347 C.3     1  UNL1        0.0556
     28 C         140.2812  141.4452  167.7492 C.ar    1  UNL1        0.1001
     29 N         140.0610  141.8052  169.1886 N.ar    1  UNL1       -0.2085
     30 C         139.2870  140.6927  169.8314 C.ar    1  UNL1        0.2849
     31 O         139.0289  139.6452  168.7894 O.2     1  UNL1       -0.4283
     32 C         139.6434  140.1103  167.5025 C.ar    1  UNL1        0.1964
@<TRIPOS>BOND
     1    27    28    1
     2    28    29   ar
     3    29    30   ar
     4    30    31   ar
     5    31    32   ar
     6    32    21    1
     7    21    22   ar
     8    22    23   ar
     9    23    24   ar
    10    24    20    1
    11    20    19    1
    12    19    18    1
    13    18     1    1
    14     1     2    1
    15     2     3    1
    16     3     4    1
    17     4     5    1
    18     5     6    1
    19     6     8    1
    20     8     9   ar
    21     9    10   ar
    22    10    11   ar
    23    11    12   ar
    24    12    13   ar
    25    13    14    1
    26    14    15    1
    27    14    16    1
    28    14    17    1
    29     6     7    1
    30    24    25   ar
    31    25    26    1
    32    32    28   ar
    33    25    21   ar
    34     7     2    1
    35     6     4    1
    36    13     8   ar
@<TRIPOS>MOLECULE
*****
 32 36 0 0 0
SMALL
GASTEIGER

@<TRIPOS>ATOM
      1 C         144.0524  139.1142  165.4264 C.3     1  UNL1        0.0730
      2 N         142.8437  139.5870  166.1783 N.3     1  UNL1       -0.2724
      3 C         142.5410  139.3146  167.6220 C.3     1  UNL1        0.0724
      4 C         141.2356  139.9744  167.9544 C.3     1  UNL1        0.0214
      5 C         139.9367  140.7239  167.9865 C.3     1  UNL1        0.0072
      6 C         140.7314  140.6546  166.7162 C.3     1  UNL1        0.0349
      7 C         141.7252  140.4151  165.6185 C.3     1  UNL1        0.0761
      8 C         139.7792  141.4682  165.8909 C.ar    1  UNL1       -0.0176
      9 C         139.9056  142.9624  165.8551 C.ar    1  UNL1       -0.0043
     10 C         138.9533  143.7762  165.0297 C.ar    1  UNL1       -0.0003
     11 C         137.8746  143.0956  164.2402 C.ar    1  UNL1       -0.0001
     12 C         137.7483  141.6013  164.2760 C.ar    1  UNL1        0.0035
     13 C         138.7005  140.7876  165.1014 C.ar    1  UNL1        0.0675
     14 C         138.5741  139.2934  165.1372 C.3     1  UNL1        0.4183
     15 F         138.4477  137.7992  165.1729 F       1  UNL1       -0.1659
     16 F         137.6116  139.4023  166.2825 F       1  UNL1       -0.1659
     17 F         139.3871  138.8730  164.1447 F       1  UNL1       -0.1659
     18 C         144.4345  139.7695  164.1324 C.3     1  UNL1        0.0294
     19 C         144.0905  139.1124  162.8286 C.3     1  UNL1        0.0666
     20 S         144.1240  139.9067  161.5565 S.3     1  UNL1       -0.0756
     21 C         142.6107  143.4806  161.5088 C.ar    1  UNL1        0.2029
     22 N         144.0637  143.7839  161.7247 N.ar    1  UNL1       -0.1250
     23 N         144.8075  142.4821  161.7688 N.ar    1  UNL1       -0.1220
     24 C         143.8141  141.3741  161.5803 C.ar    1  UNL1        0.1933
     25 N         142.4564  141.9913  161.4196 N.ar    1  UNL1       -0.2860
     26 C         141.1702  141.2492  161.2070 C.3     1  UNL1        0.1341
     27 C         140.9535  144.2288  158.7989 C.3     1  UNL1        0.0556
     28 C         140.7442  144.8334  160.1556 C.ar    1  UNL1        0.1001
     29 N         139.7364  145.8880  160.5048 N.ar    1  UNL1       -0.2085
     30 C         139.8752  146.1959  161.9663 C.ar    1  UNL1        0.2849
     31 O         140.9688  145.3316  162.5203 O.2     1  UNL1       -0.4283
     32 C         141.5058  144.4895  161.4012 C.ar    1  UNL1        0.1964
@<TRIPOS>BOND
     1    27    28    1
     2    28    29   ar
     3    29    30   ar
     4    30    31   ar
     5    31    32   ar
     6    32    21    1
     7    21    22   ar
     8    22    23   ar
     9    23    24   ar
    10    24    20    1
    11    20    19    1
    12    19    18    1
    13    18     1    1
    14     1     2    1
    15     2     3    1
    16     3     4    1
    17     4     5    1
    18     5     6    1
    19     6     8    1
    20     8     9   ar
    21     9    10   ar
    22    10    11   ar
    23    11    12   ar
    24    12    13   ar
    25    13    14    1
    26    14    15    1
    27    14    16    1
    28    14    17    1
    29     6     7    1
    30    24    25   ar
    31    25    26    1
    32    32    28   ar
    33    25    21   ar
    34     7     2    1
    35     6     4    1
    36    13     8   ar
@<TRIPOS>MOLECULE
*****
 32 36 0 0 0
SMALL
GASTEIGER

@<TRIPOS>ATOM
      1 C         140.1512  144.9255  163.4883 C.3     1  UNL1        0.0730
      2 N         141.4639  144.4049  163.9941 N.3     1  UNL1       -0.2724
      3 C         142.7440  145.1813  164.0858 C.3     1  UNL1        0.0724
      4 C         143.7983  144.2727  164.6454 C.3     1  UNL1        0.0214
      5 C         144.6207  143.1529  165.2105 C.3     1  UNL1        0.0072
      6 C         143.1697  142.9347  164.8996 C.3     1  UNL1        0.0349
      7 C         141.7270  143.0164  164.4970 C.3     1  UNL1        0.0761
      8 C         143.1293  141.5006  165.3374 C.ar    1  UNL1       -0.0176
      9 C         143.5471  140.4152  164.3902 C.ar    1  UNL1       -0.0043
     10 C         143.5068  138.9810  164.8281 C.ar    1  UNL1       -0.0003
     11 C         143.0487  138.6324  166.2132 C.ar    1  UNL1       -0.0001
     12 C         142.6309  139.7179  167.1605 C.ar    1  UNL1        0.0035
     13 C         142.6712  141.1520  166.7226 C.ar    1  UNL1        0.0675
     14 C         142.2534  142.2374  167.6698 C.3     1  UNL1        0.4183
     15 F         141.8356  143.3228  168.6170 F       1  UNL1       -0.1659
     16 F         143.6670  142.3561  168.1573 F       1  UNL1       -0.1659
     17 F         140.9279  142.3701  167.4504 F       1  UNL1       -0.1659
     18 C         140.1016  145.7360  162.2272 C.3     1  UNL1        0.0294
     19 C         140.6827  145.1856  160.9585 C.3     1  UNL1        0.0666
     20 S         139.9996  144.0536  160.2500 S.3     1  UNL1       -0.0756
     21 C         138.6815  141.0382  162.3080 C.ar    1  UNL1        0.2029
     22 N         137.4382  141.8677  162.1804 N.ar    1  UNL1       -0.1250
     23 N         137.7807  143.0982  161.3940 N.ar    1  UNL1       -0.1220
     24 C         139.2355  143.0292  161.0355 C.ar    1  UNL1        0.1933
     25 N         139.7922  141.7560  161.6004 N.ar    1  UNL1       -0.2860
     26 C         141.2108  141.2837  161.4789 C.3     1  UNL1        0.1341
     27 C         139.0131  140.6181  165.5272 C.3     1  UNL1        0.0556
     28 C         138.9465  139.5288  164.4981 C.ar    1  UNL1        0.1001
     29 N         139.0207  138.0552  164.7680 N.ar    1  UNL1       -0.2085
     30 C         138.9141  137.3375  163.4552 C.ar    1  UNL1        0.2849
     31 O         138.7741  138.3675  162.3739 O.2     1  UNL1       -0.4283
     32 C         138.7941  139.7218  163.0185 C.ar    1  UNL1        0.1964
@<TRIPOS>BOND
     1    27    28    1
     2    28    29   ar
     3    29    30   ar
     4    30    31   ar
     5    31    32   ar
     6    32    21    1
     7    21    22   ar
     8    22    23   ar
     9    23    24   ar
    10    24    20    1
    11    20    19    1
    12    19    18    1
    13    18     1    1
    14     1     2    1
    15     2     3    1
    16     3     4    1
    17     4     5    1
    18     5     6    1
    19     6     8    1
    20     8     9   ar
    21     9    10   ar
    22    10    11   ar
    23    11    12   ar
    24    12    13   ar
    25    13    14    1
    26    14    15    1
    27    14    16    1
    28    14    17    1
    29     6     7    1
    30    24    25   ar
    31    25    26    1
    32    32    28   ar
    33    25    21   ar
    34     7     2    1
    35     6     4    1
    36    13     8   ar
@<TRIPOS>MOLECULE
*****
 32 36 0 0 0
SMALL
GASTEIGER

@<TRIPOS>ATOM
      1 C         141.9901  137.7399  163.1851 C.3     1  UNL1        0.0730
      2 N         142.3245  138.8626  164.1219 N.3     1  UNL1       -0.2724
      3 C         143.1765  140.0547  163.8010 C.3     1  UNL1        0.0724
      4 C         143.2443  140.9191  165.0249 C.3     1  UNL1        0.0214
      5 C         143.1288  141.5625  166.3750 C.3     1  UNL1        0.0072
      6 C         142.4341  140.2613  166.1024 C.3     1  UNL1        0.0349
      7 C         141.8657  138.9903  165.5443 C.3     1  UNL1        0.0761
      8 C         141.8300  140.1170  167.4678 C.ar    1  UNL1       -0.0176
      9 C         142.6207  139.4849  168.5747 C.ar    1  UNL1       -0.0043
     10 C         142.0166  139.3406  169.9401 C.ar    1  UNL1       -0.0003
     11 C         140.6219  139.8284  170.1986 C.ar    1  UNL1       -0.0001
     12 C         139.8312  140.4606  169.0916 C.ar    1  UNL1        0.0035
     13 C         140.4353  140.6049  167.7262 C.ar    1  UNL1        0.0675
     14 C         139.6446  141.2370  166.6193 C.3     1  UNL1        0.4183
     15 F         138.8540  141.8690  165.5124 F       1  UNL1       -0.1659
     16 F         140.2173  142.5768  166.9754 F       1  UNL1       -0.1659
     17 F         138.9724  140.2045  166.0673 F       1  UNL1       -0.1659
     18 C         140.5659  137.2985  163.0216 C.3     1  UNL1        0.0294
     19 C         139.4486  138.1775  163.5002 C.3     1  UNL1        0.0666
     20 S         138.4892  138.7749  162.5138 S.3     1  UNL1       -0.0756
     21 C         138.6020  142.6402  162.1808 C.ar    1  UNL1        0.2029
     22 N         137.2234  142.4373  162.7360 N.ar    1  UNL1       -0.1250
     23 N         137.0134  140.9646  162.9283 N.ar    1  UNL1       -0.1220
     24 C         138.2621  140.2574  162.4920 C.ar    1  UNL1        0.1933
     25 N         139.2440  141.2931  162.0300 N.ar    1  UNL1       -0.2860
     26 C         140.6253  141.0279  161.5087 C.3     1  UNL1        0.1341
     27 C         139.6292  144.8896  164.3104 C.3     1  UNL1        0.0556
     28 C         139.7008  144.9929  162.8156 C.ar    1  UNL1        0.1001
     29 N         140.2570  146.1482  162.0373 N.ar    1  UNL1       -0.2085
     30 C         140.1286  145.8284  160.5775 C.ar    1  UNL1        0.2849
     31 O         139.4931  144.4754  160.4535 O.2     1  UNL1       -0.4283
     32 C         139.2286  143.9590  161.8368 C.ar    1  UNL1        0.1964
@<TRIPOS>BOND
     1    27    28    1
     2    28    29   ar
     3    29    30   ar
     4    30    31   ar
     5    31    32   ar
     6    32    21    1
     7    21    22   ar
     8    22    23   ar
     9    23    24   ar
    10    24    20    1
    11    20    19    1
    12    19    18    1
    13    18     1    1
    14     1     2    1
    15     2     3    1
    16     3     4    1
    17     4     5    1
    18     5     6    1
    19     6     8    1
    20     8     9   ar
    21     9    10   ar
    22    10    11   ar
    23    11    12   ar
    24    12    13   ar
    25    13    14    1
    26    14    15    1
    27    14    16    1
    28    14    17    1
    29     6     7    1
    30    24    25   ar
    31    25    26    1
    32    32    28   ar
    33    25    21   ar
    34     7     2    1
    35     6     4    1
    36    13     8   ar
@<TRIPOS>MOLECULE
*****
 32 36 0 0 0
SMALL
GASTEIGER

@<TRIPOS>ATOM
      1 C         144.3081  142.6281  163.4864 C.3     1  UNL1        0.0730
      2 N         143.9869  141.3286  164.1631 N.3     1  UNL1       -0.2724
      3 C         144.9109  140.1553  164.3030 C.3     1  UNL1        0.0724
      4 C         144.1803  139.0757  165.0451 C.3     1  UNL1        0.0214
      5 C         143.2143  138.2033  165.7905 C.3     1  UNL1        0.0072
      6 C         142.8047  139.5817  165.3639 C.3     1  UNL1        0.0349
      7 C         142.6852  140.9741  164.8188 C.3     1  UNL1        0.0761
      8 C         141.4174  139.5155  165.9304 C.ar    1  UNL1       -0.0176
      9 C         140.3099  138.8950  165.1313 C.ar    1  UNL1       -0.0043
     10 C         138.9225  138.8287  165.6978 C.ar    1  UNL1       -0.0003
     11 C         138.6427  139.3829  167.0633 C.ar    1  UNL1       -0.0001
     12 C         139.7503  140.0034  167.8624 C.ar    1  UNL1        0.0035
     13 C         141.1376  140.0697  167.2959 C.ar    1  UNL1        0.0675
     14 C         142.2451  140.6901  168.0949 C.3     1  UNL1        0.4183
     15 F         143.3526  141.3105  168.8940 F       1  UNL1       -0.1659
     16 F         141.7883  142.0539  167.6690 F       1  UNL1       -0.1659
     17 F         142.8851  139.6342  168.6409 F       1  UNL1       -0.1659
     18 C         144.0233  143.9263  164.1817 C.3     1  UNL1        0.0294
     19 C         143.2950  145.0203  163.4587 C.3     1  UNL1        0.0666
     20 S         141.8302  145.2339  163.7014 S.3     1  UNL1       -0.0756
     21 C         139.5760  142.1606  162.9677 C.ar    1  UNL1        0.2029
     22 N         139.3179  142.3667  164.4309 N.ar    1  UNL1       -0.1250
     23 N         140.1308  143.5430  164.8838 N.ar    1  UNL1       -0.1220
     24 C         140.8914  144.0640  163.7006 C.ar    1  UNL1        0.1933
     25 N         140.5485  143.2095  162.5164 N.ar    1  UNL1       -0.2860
     26 C         141.0841  143.3751  161.1251 C.3     1  UNL1        0.1341
     27 C         141.1475  139.6030  161.6875 C.3     1  UNL1        0.0556
     28 C         139.6905  139.9174  161.5186 C.ar    1  UNL1        0.1001
     29 N         138.7002  139.1113  160.7316 N.ar    1  UNL1       -0.2085
     30 C         137.3657  139.7887  160.8337 C.ar    1  UNL1        0.2849
     31 O         137.5314  141.0134  161.6837 O.2     1  UNL1       -0.4283
     32 C         138.9682  141.0929  162.1070 C.ar    1  UNL1        0.1964
@<TRIPOS>BOND
     1    27    28    1
     2    28    29   ar
     3    29    30   ar
     4    30    31   ar
     5    31    32   ar
     6    32    21    1
     7    21    22   ar
     8    22    23   ar
     9    23    24   ar
    10    24    20    1
    11    20    19    1
    12    19    18    1
    13    18     1    1
    14     1     2    1
    15     2     3    1
    16     3     4    1
    17     4     5    1
    18     5     6    1
    19     6     8    1
    20     8     9   ar
    21     9    10   ar
    22    10    11   ar
    23    11    12   ar
    24    12    13   ar
    25    13    14    1
    26    14    15    1
    27    14    16    1
    28    14    17    1
    29     6     7    1
    30    24    25   ar
    31    25    26    1
    32    32    28   ar
    33    25    21   ar
    34     7     2    1
    35     6     4    1
    36    13     8   ar
@<TRIPOS>MOLECULE
*****
 32 36 0 0 0
SMALL
GASTEIGER

@<TRIPOS>ATOM
      1 C         143.4750  140.7595  161.0731 C.3     1  UNL1        0.0730
      2 N         143.2137  142.0625  161.7687 N.3     1  UNL1       -0.2724
      3 C         144.1965  143.1825  161.9411 C.3     1  UNL1        0.0724
      4 C         143.5140  144.2865  162.6930 C.3     1  UNL1        0.0214
      5 C         142.5854  145.1961  163.4415 C.3     1  UNL1        0.0072
      6 C         142.1094  143.8488  162.9853 C.3     1  UNL1        0.0349
      7 C         141.9238  142.4743  162.4141 C.3     1  UNL1        0.0761
      8 C         140.7199  143.9790  163.5353 C.ar    1  UNL1       -0.0176
      9 C         140.4320  143.5710  164.9497 C.ar    1  UNL1       -0.0043
     10 C         139.0425  143.7011  165.4998 C.ar    1  UNL1       -0.0003
     11 C         137.9410  144.2392  164.6354 C.ar    1  UNL1       -0.0001
     12 C         138.2290  144.6472  163.2209 C.ar    1  UNL1        0.0035
     13 C         139.6184  144.5170  162.6709 C.ar    1  UNL1        0.0675
     14 C         139.9064  144.9250  161.2564 C.3     1  UNL1        0.4183
     15 F         140.1944  145.3330  159.8421 F       1  UNL1       -0.1659
     16 F         139.4807  143.5684  160.7785 F       1  UNL1       -0.1659
     17 F         140.3409  146.1985  161.3659 F       1  UNL1       -0.1659
     18 C         144.1494  139.6391  161.8079 C.3     1  UNL1        0.0294
     19 C         143.6709  139.2422  163.1730 C.3     1  UNL1        0.0666
     20 S         144.2248  139.9234  164.3893 S.3     1  UNL1       -0.0756
     21 C         142.2278  141.1512  167.4827 C.ar    1  UNL1        0.2029
     22 N         141.8213  139.7083  167.4293 N.ar    1  UNL1       -0.1250
     23 N         142.5198  139.0728  166.2640 N.ar    1  UNL1       -0.1220
     24 C         143.3581  140.1228  165.5972 C.ar    1  UNL1        0.1933
     25 N         143.1776  141.4073  166.3505 N.ar    1  UNL1       -0.2860
     26 C         143.8321  142.7180  166.0280 C.3     1  UNL1        0.1341
     27 C         144.0190  142.3966  169.9098 C.3     1  UNL1        0.0556
     28 C         142.5889  142.7330  169.6070 C.ar    1  UNL1        0.1001
     29 N         141.7311  143.7010  170.3666 N.ar    1  UNL1       -0.2085
     30 C         140.3776  143.7268  169.7206 C.ar    1  UNL1        0.2849
     31 O         140.3989  142.7749  168.5617 O.2     1  UNL1       -0.4283
     32 C         141.7656  142.1606  168.4915 C.ar    1  UNL1        0.1964
@<TRIPOS>BOND
     1    27    28    1
     2    28    29   ar
     3    29    30   ar
     4    30    31   ar
     5    31    32   ar
     6    32    21    1
     7    21    22   ar
     8    22    23   ar
     9    23    24   ar
    10    24    20    1
    11    20    19    1
    12    19    18    1
    13    18     1    1
    14     1     2    1
    15     2     3    1
    16     3     4    1
    17     4     5    1
    18     5     6    1
    19     6     8    1
    20     8     9   ar
    21     9    10   ar
    22    10    11   ar
    23    11    12   ar
    24    12    13   ar
    25    13    14    1
    26    14    15    1
    27    14    16    1
    28    14    17    1
    29     6     7    1
    30    24    25   ar
    31    25    26    1
    32    32    28   ar
    33    25    21   ar
    34     7     2    1
    35     6     4    1
    36    13     8   ar
@<TRIPOS>MOLECULE
*****
 32 36 0 0 0
SMALL
GASTEIGER

@<TRIPOS>ATOM
      1 C         138.5061  138.5705  165.7876 C.3     1  UNL1        0.0730
      2 N         139.0038  139.9850  165.8291 N.3     1  UNL1       -0.2724
      3 C         138.7303  141.0464  164.8051 C.3     1  UNL1        0.0724
      4 C         139.4198  142.3037  165.2451 C.3     1  UNL1        0.0214
      5 C         140.2007  143.3864  165.9291 C.3     1  UNL1        0.0072
      6 C         140.1196  142.0194  166.5411 C.3     1  UNL1        0.0349
      7 C         139.8625  140.5864  166.9020 C.3     1  UNL1        0.0761
      8 C         140.9613  142.3350  167.7419 C.ar    1  UNL1       -0.0176
      9 C         140.3356  142.9618  168.9525 C.ar    1  UNL1       -0.0043
     10 C         141.1773  143.2774  170.1534 C.ar    1  UNL1       -0.0003
     11 C         142.6446  142.9662  170.1436 C.ar    1  UNL1       -0.0001
     12 C         143.2703  142.3393  168.9329 C.ar    1  UNL1        0.0035
     13 C         142.4286  142.0237  167.7321 C.ar    1  UNL1        0.0675
     14 C         143.0542  141.3968  166.5215 C.3     1  UNL1        0.4183
     15 F         143.6799  140.7701  165.3109 F       1  UNL1       -0.1659
     16 F         142.9699  140.0496  167.1755 F       1  UNL1       -0.1659
     17 F         143.2642  142.4369  165.6867 F       1  UNL1       -0.1659
     18 C         139.1421  137.5787  164.8593 C.3     1  UNL1        0.0294
     19 C         138.8624  137.6431  163.3870 C.3     1  UNL1        0.0666
     20 S         139.9731  137.9453  162.4251 S.3     1  UNL1       -0.0756
     21 C         140.8652  141.6568  161.7222 C.ar    1  UNL1        0.2029
     22 N         141.9373  141.2815  162.7019 N.ar    1  UNL1       -0.1250
     23 N         141.7336  139.8456  163.0845 N.ar    1  UNL1       -0.1220
     24 C         140.5356  139.3333  162.3412 C.ar    1  UNL1        0.1933
     25 N         139.9990  140.4527  161.4993 N.ar    1  UNL1       -0.2860
     26 C         138.8055  140.3806  160.5934 C.3     1  UNL1        0.1341
     27 C         138.3506  143.6872  162.1737 C.3     1  UNL1        0.0556
     28 C         139.5344  143.9335  161.2859 C.ar    1  UNL1        0.1001
     29 N         139.7701  145.1564  160.4499 N.ar    1  UNL1       -0.2085
     30 C         141.0716  144.9789  159.7256 C.ar    1  UNL1        0.2849
     31 O         141.6402  143.6464  160.1140 O.2     1  UNL1       -0.4283
     32 C         140.6901  143.0003  161.0784 C.ar    1  UNL1        0.1964
@<TRIPOS>BOND
     1    27    28    1
     2    28    29   ar
     3    29    30   ar
     4    30    31   ar
     5    31    32   ar
     6    32    21    1
     7    21    22   ar
     8    22    23   ar
     9    23    24   ar
    10    24    20    1
    11    20    19    1
    12    19    18    1
    13    18     1    1
    14     1     2    1
    15     2     3    1
    16     3     4    1
    17     4     5    1
    18     5     6    1
    19     6     8    1
    20     8     9   ar
    21     9    10   ar
    22    10    11   ar
    23    11    12   ar
    24    12    13   ar
    25    13    14    1
    26    14    15    1
    27    14    16    1
    28    14    17    1
    29     6     7    1
    30    24    25   ar
    31    25    26    1
    32    32    28   ar
    33    25    21   ar
    34     7     2    1
    35     6     4    1
    36    13     8   ar
