@<TRIPOS>MOLECULE
*****
 28 31 0 0 0
SMALL
GASTEIGER

@<TRIPOS>ATOM
      1 C         138.1029  138.2489  166.4541 C.3     1  UNL1        0.0298
      2 C         139.3146  138.8436  165.7997 C.3     1  UNL1        0.1343
      3 C         139.6352  138.5117  164.3725 C.ar    1  UNL1        0.1615
      4 N         138.9475  137.6369  163.3666 N.ar    1  UNL1       -0.1316
      5 N         139.7342  137.6910  162.0906 N.ar    1  UNL1       -0.1268
      6 C         140.9081  138.5992  162.3078 C.ar    1  UNL1        0.1917
      7 N         140.8469  139.1064  163.7182 N.ar    1  UNL1       -0.2940
      8 C         141.7380  140.0330  164.4911 C.3     1  UNL1        0.1302
      9 C         141.4174  140.3648  165.9183 C.3     1  UNL1        0.1186
     10 N         140.2057  139.7702  166.5726 N.am    1  UNL1       -0.2688
     11 C         139.8851  140.1021  168.0000 C.2     1  UNL1        0.2494
     12 O         138.6734  139.5073  168.6543 O.2     1  UNL1       -0.2699
     13 C         140.7762  141.0286  168.7729 C.ar    1  UNL1        0.0537
     14 C         140.3497  142.4449  169.0221 C.ar    1  UNL1        0.0068
     15 C         141.2409  143.3715  169.7951 C.ar    1  UNL1        0.0298
     16 C         142.5584  142.8817  170.3188 C.ar    1  UNL1        0.1401
     17 F         143.4495  143.8082  171.0917 F       1  UNL1       -0.2042
     18 C         142.9848  141.4653  170.0695 C.ar    1  UNL1        0.0298
     19 C         142.0937  140.5388  169.2966 C.ar    1  UNL1        0.0068
     20 C         141.9586  138.9402  161.2930 C.ar    1  UNL1        0.1655
     21 N         142.3345  140.3208  160.8429 N.ar    1  UNL1       -0.2116
     22 C         143.4260  140.1943  159.8217 C.ar    1  UNL1        0.2429
     23 N         143.7247  138.7356  159.6407 N.ar    1  UNL1       -0.1848
     24 S         142.8178  137.9605  160.5500 S.2     1  UNL1        0.0372
     25 C         144.1004  141.3277  159.1071 C.3     1  UNL1        0.4529
     26 F         144.7747  142.4610  158.3924 F       1  UNL1       -0.1631
     27 F         144.4801  140.3987  157.9922 F       1  UNL1       -0.1631
     28 F         143.7206  142.2566  160.2219 F       1  UNL1       -0.1631
@<TRIPOS>BOND
     1     2     1    1
     2     2     3    1
     3     3     4   ar
     4     4     5   ar
     5     5     6   ar
     6     6    20    1
     7    20    21   ar
     8    21    22   ar
     9    22    25    1
    10    25    26    1
    11    25    27    1
    12    25    28    1
    13    22    23   ar
    14    23    24   ar
    15     6     7   ar
    16     7     8    1
    17     8     9    1
    18     9    10    1
    19    10    11   am
    20    11    12    2
    21    11    13    1
    22    13    14   ar
    23    14    15   ar
    24    15    16   ar
    25    16    17    1
    26    16    18   ar
    27    18    19   ar
    28    10     2    1
    29    19    13   ar
    30     7     3   ar
    31    24    20   ar
@<TRIPOS>MOLECULE
*****
 28 31 0 0 0
SMALL
GASTEIGER

@<TRIPOS>ATOM
      1 C         144.0668  138.2750  166.1787 C.3     1  UNL1        0.0298
      2 C         143.4486  139.5088  165.5908 C.3     1  UNL1        0.1343
      3 C         143.6688  139.8421  164.1450 C.ar    1  UNL1        0.1615
      4 N         144.4412  139.1495  163.0617 N.ar    1  UNL1       -0.1316
      5 N         144.3003  139.9552  161.8044 N.ar    1  UNL1       -0.1268
      6 C         143.4408  141.1458  162.1106 C.ar    1  UNL1        0.1917
      7 N         143.0505  141.0759  163.5572 N.ar    1  UNL1       -0.2940
      8 C         142.2119  141.9763  164.4152 C.3     1  UNL1        0.1302
      9 C         141.9917  141.6429  165.8610 C.3     1  UNL1        0.1186
     10 N         142.6100  140.4092  166.4488 N.am    1  UNL1       -0.2688
     11 C         142.3897  140.0759  167.8947 C.2     1  UNL1        0.2494
     12 O         143.0080  138.8421  168.4825 O.2     1  UNL1       -0.2699
     13 C         141.5512  140.9763  168.7526 C.ar    1  UNL1        0.0537
     14 C         140.1757  140.5472  169.1698 C.ar    1  UNL1        0.0068
     15 C         139.3372  141.4477  170.0278 C.ar    1  UNL1        0.0298
     16 C         139.8741  142.7771  170.4686 C.ar    1  UNL1        0.1401
     17 F         139.0357  143.6776  171.3266 F       1  UNL1       -0.2042
     18 C         141.2496  143.2061  170.0514 C.ar    1  UNL1        0.0298
     19 C         142.0882  142.3057  169.1934 C.ar    1  UNL1        0.0068
     20 C         143.0417  142.2179  161.1404 C.ar    1  UNL1        0.1655
     21 N         141.8261  143.0909  161.2421 N.ar    1  UNL1       -0.2116
     22 C         141.8213  144.0179  160.0628 C.ar    1  UNL1        0.2429
     23 N         143.0338  143.7178  159.2323 N.ar    1  UNL1       -0.1848
     24 S         143.7880  142.6054  159.8983 S.2     1  UNL1        0.0372
     25 C         140.7857  145.0617  159.7661 C.3     1  UNL1        0.4529
     26 F         139.7501  146.1055  159.4694 F       1  UNL1       -0.1631
     27 F         141.7621  145.7791  158.8819 F       1  UNL1       -0.1631
     28 F         139.8092  144.3442  160.6503 F       1  UNL1       -0.1631
@<TRIPOS>BOND
     1     2     1    1
     2     2     3    1
     3     3     4   ar
     4     4     5   ar
     5     5     6   ar
     6     6    20    1
     7    20    21   ar
     8    21    22   ar
     9    22    25    1
    10    25    26    1
    11    25    27    1
    12    25    28    1
    13    22    23   ar
    14    23    24   ar
    15     6     7   ar
    16     7     8    1
    17     8     9    1
    18     9    10    1
    19    10    11   am
    20    11    12    2
    21    11    13    1
    22    13    14   ar
    23    14    15   ar
    24    15    16   ar
    25    16    17    1
    26    16    18   ar
    27    18    19   ar
    28    10     2    1
    29    19    13   ar
    30     7     3   ar
    31    24    20   ar
@<TRIPOS>MOLECULE
*****
 28 31 0 0 0
SMALL
GASTEIGER

@<TRIPOS>ATOM
      1 C         137.9451  139.0321  166.1462 C.3     1  UNL1        0.0298
      2 C         138.8172  140.0643  165.4949 C.3     1  UNL1        0.1343
      3 C         138.7325  140.2919  164.0147 C.ar    1  UNL1        0.1615
      4 N         137.8911  139.6561  162.9480 N.ar    1  UNL1       -0.1316
      5 N         138.2432  140.2954  161.6376 N.ar    1  UNL1       -0.1268
      6 C         139.3022  141.3263  161.8943 C.ar    1  UNL1        0.1917
      7 N         139.6046  141.3241  163.3635 N.ar    1  UNL1       -0.2940
      8 C         140.5613  142.1287  164.1925 C.3     1  UNL1        0.1302
      9 C         140.6460  141.9011  165.6727 C.3     1  UNL1        0.1186
     10 N         139.7740  140.8689  166.3239 N.am    1  UNL1       -0.2688
     11 C         139.8587  140.6413  167.8042 C.2     1  UNL1        0.2494
     12 O         138.9867  139.6091  168.4554 O.2     1  UNL1       -0.2699
     13 C         140.8155  141.4459  168.6332 C.ar    1  UNL1        0.0537
     14 C         142.2073  140.9410  168.8739 C.ar    1  UNL1        0.0068
     15 C         143.1641  141.7456  169.7029 C.ar    1  UNL1        0.0298
     16 C         142.7291  143.0550  170.2912 C.ar    1  UNL1        0.1401
     17 F         143.6858  143.8597  171.1202 F       1  UNL1       -0.2042
     18 C         141.3372  143.5599  170.0504 C.ar    1  UNL1        0.0298
     19 C         140.3804  142.7553  169.2214 C.ar    1  UNL1        0.0068
     20 C         139.9457  142.2050  160.8630 C.ar    1  UNL1        0.1655
     21 N         139.3718  143.4724  160.3024 N.ar    1  UNL1       -0.2116
     22 C         140.3476  144.0213  159.3041 C.ar    1  UNL1        0.2429
     23 N         141.5246  143.0931  159.2477 N.ar    1  UNL1       -0.1848
     24 S         141.2762  141.9706  160.2111 S.2     1  UNL1        0.0372
     25 C         140.1764  145.2778  158.5029 C.3     1  UNL1        0.4529
     26 F         140.0053  146.5342  157.7016 F       1  UNL1       -0.1631
     27 F         139.3742  144.5204  157.4865 F       1  UNL1       -0.1631
     28 F         140.9786  146.0351  159.5192 F       1  UNL1       -0.1631
@<TRIPOS>BOND
     1     2     1    1
     2     2     3    1
     3     3     4   ar
     4     4     5   ar
     5     5     6   ar
     6     6    20    1
     7    20    21   ar
     8    21    22   ar
     9    22    25    1
    10    25    26    1
    11    25    27    1
    12    25    28    1
    13    22    23   ar
    14    23    24   ar
    15     6     7   ar
    16     7     8    1
    17     8     9    1
    18     9    10    1
    19    10    11   am
    20    11    12    2
    21    11    13    1
    22    13    14   ar
    23    14    15   ar
    24    15    16   ar
    25    16    17    1
    26    16    18   ar
    27    18    19   ar
    28    10     2    1
    29    19    13   ar
    30     7     3   ar
    31    24    20   ar
@<TRIPOS>MOLECULE
*****
 28 31 0 0 0
SMALL
GASTEIGER

@<TRIPOS>ATOM
      1 C         144.7380  139.9118  163.9381 C.3     1  UNL1        0.0298
      2 C         143.5190  140.6136  163.4169 C.3     1  UNL1        0.1343
      3 C         143.6521  141.6450  162.3358 C.ar    1  UNL1        0.1615
      4 N         144.8442  142.1753  161.5959 N.ar    1  UNL1       -0.1316
      5 N         144.3620  143.2048  160.6174 N.ar    1  UNL1       -0.1268
      6 C         142.8719  143.3108  160.7526 C.ar    1  UNL1        0.1917
      7 N         142.4331  142.3467  161.8146 N.ar    1  UNL1       -0.2940
      8 C         141.0811  142.0172  162.3745 C.3     1  UNL1        0.1302
      9 C         140.9480  140.9859  163.4556 C.3     1  UNL1        0.1186
     10 N         142.1669  140.2842  163.9767 N.am    1  UNL1       -0.2688
     11 C         142.0338  139.2528  165.0578 C.2     1  UNL1        0.2494
     12 O         143.2528  138.5510  165.5790 O.2     1  UNL1       -0.2699
     13 C         140.6818  138.9233  165.6177 C.ar    1  UNL1        0.0537
     14 C         139.8787  137.8022  165.0278 C.ar    1  UNL1        0.0068
     15 C         138.5266  137.4727  165.5877 C.ar    1  UNL1        0.0298
     16 C         137.9778  138.2643  166.7375 C.ar    1  UNL1        0.1401
     17 F         136.6258  137.9348  167.2974 F       1  UNL1       -0.2042
     18 C         138.7810  139.3854  167.3274 C.ar    1  UNL1        0.0298
     19 C         140.1330  139.7149  166.7676 C.ar    1  UNL1        0.0068
     20 C         141.9776  144.2211  159.9641 C.ar    1  UNL1        0.1655
     21 N         142.1988  144.6653  158.5486 N.ar    1  UNL1       -0.2116
     22 C         141.0630  145.5657  158.1624 C.ar    1  UNL1        0.2429
     23 N         140.1397  145.6780  159.3393 N.ar    1  UNL1       -0.1848
     24 S         140.7050  144.8470  160.4528 S.2     1  UNL1        0.0372
     25 C         140.8821  146.2361  156.8328 C.3     1  UNL1        0.4529
     26 F         140.7013  146.9065  155.5032 F       1  UNL1       -0.1631
     27 F         139.5674  146.7930  157.2924 F       1  UNL1       -0.1631
     28 F         142.1969  145.6792  156.3732 F       1  UNL1       -0.1631
@<TRIPOS>BOND
     1     2     1    1
     2     2     3    1
     3     3     4   ar
     4     4     5   ar
     5     5     6   ar
     6     6    20    1
     7    20    21   ar
     8    21    22   ar
     9    22    25    1
    10    25    26    1
    11    25    27    1
    12    25    28    1
    13    22    23   ar
    14    23    24   ar
    15     6     7   ar
    16     7     8    1
    17     8     9    1
    18     9    10    1
    19    10    11   am
    20    11    12    2
    21    11    13    1
    22    13    14   ar
    23    14    15   ar
    24    15    16   ar
    25    16    17    1
    26    16    18   ar
    27    18    19   ar
    28    10     2    1
    29    19    13   ar
    30     7     3   ar
    31    24    20   ar
@<TRIPOS>MOLECULE
*****
 28 31 0 0 0
SMALL
GASTEIGER

@<TRIPOS>ATOM
      1 C         138.0775  138.7102  166.2580 C.3     1  UNL1        0.0298
      2 C         139.0718  139.6021  165.5754 C.3     1  UNL1        0.1343
      3 C         139.1488  139.6315  164.0777 C.ar    1  UNL1        0.1615
      4 N         138.3801  138.8984  163.0186 N.ar    1  UNL1       -0.1316
      5 N         138.8994  139.3372  161.6815 N.ar    1  UNL1       -0.1268
      6 C         139.9889  140.3416  161.9142 C.ar    1  UNL1        0.1917
      7 N         140.1431  140.5234  163.3952 N.ar    1  UNL1       -0.2940
      8 C         141.0604  141.3860  164.2104 C.3     1  UNL1        0.1302
      9 C         140.9834  141.3566  165.7081 C.3     1  UNL1        0.1186
     10 N         139.9892  140.4647  166.3906 N.am    1  UNL1       -0.2688
     11 C         139.9122  140.4353  167.8884 C.2     1  UNL1        0.2494
     12 O         138.9179  139.5434  168.5709 O.2     1  UNL1       -0.2699
     13 C         140.8295  141.2979  168.7036 C.ar    1  UNL1        0.0537
     14 C         140.3847  142.6621  169.1407 C.ar    1  UNL1        0.0068
     15 C         141.3021  143.5246  169.9559 C.ar    1  UNL1        0.0298
     16 C         142.6641  143.0230  170.3340 C.ar    1  UNL1        0.1401
     17 F         143.5815  143.8854  171.1492 F       1  UNL1       -0.2042
     18 C         143.1089  141.6587  169.8969 C.ar    1  UNL1        0.0298
     19 C         142.1916  140.7961  169.0817 C.ar    1  UNL1        0.0068
     20 C         140.7846  141.0412  160.8524 C.ar    1  UNL1        0.1655
     21 N         142.2781  141.1756  160.8146 N.ar    1  UNL1       -0.2116
     22 C         142.6430  141.9467  159.5807 C.ar    1  UNL1        0.2429
     23 N         141.3750  142.2889  158.8561 N.ar    1  UNL1       -0.1848
     24 S         140.2265  141.7293  159.6420 S.2     1  UNL1        0.0372
     25 C         144.0320  142.3115  159.1477 C.3     1  UNL1        0.4529
     26 F         145.4210  142.6764  158.7146 F       1  UNL1       -0.1631
     27 F         144.5673  141.8393  160.4669 F       1  UNL1       -0.1631
     28 F         143.4966  142.7838  157.8284 F       1  UNL1       -0.1631
@<TRIPOS>BOND
     1     2     1    1
     2     2     3    1
     3     3     4   ar
     4     4     5   ar
     5     5     6   ar
     6     6    20    1
     7    20    21   ar
     8    21    22   ar
     9    22    25    1
    10    25    26    1
    11    25    27    1
    12    25    28    1
    13    22    23   ar
    14    23    24   ar
    15     6     7   ar
    16     7     8    1
    17     8     9    1
    18     9    10    1
    19    10    11   am
    20    11    12    2
    21    11    13    1
    22    13    14   ar
    23    14    15   ar
    24    15    16   ar
    25    16    17    1
    26    16    18   ar
    27    18    19   ar
    28    10     2    1
    29    19    13   ar
    30     7     3   ar
    31    24    20   ar
@<TRIPOS>MOLECULE
*****
 28 31 0 0 0
SMALL
GASTEIGER

@<TRIPOS>ATOM
      1 C         144.6614  143.5893  165.6386 C.3     1  UNL1        0.0298
      2 C         143.3514  143.2710  164.9809 C.3     1  UNL1        0.1343
      3 C         143.1562  143.5559  163.5212 C.ar    1  UNL1        0.1615
      4 N         144.0660  144.1419  162.4825 N.ar    1  UNL1       -0.1316
      5 N         143.3183  144.1857  161.1829 N.ar    1  UNL1       -0.1268
      6 C         141.9463  143.6269  161.4184 C.ar    1  UNL1        0.1917
      7 N         141.8461  143.2376  162.8635 N.ar    1  UNL1       -0.2940
      8 C         140.7313  142.6345  163.6656 C.3     1  UNL1        0.1302
      9 C         140.9265  142.3496  165.1253 C.3     1  UNL1        0.1186
     10 N         142.2364  142.6678  165.7829 N.am    1  UNL1       -0.2688
     11 C         142.4316  142.3829  167.2427 C.2     1  UNL1        0.2494
     12 O         143.7417  142.7012  167.9003 O.2     1  UNL1       -0.2699
     13 C         141.3168  141.7798  168.0447 C.ar    1  UNL1        0.0537
     14 C         140.7582  140.4408  167.6640 C.ar    1  UNL1        0.0068
     15 C         139.6433  139.8376  168.4662 C.ar    1  UNL1        0.0298
     16 C         139.0871  140.5735  169.6489 C.ar    1  UNL1        0.1401
     17 F         137.9722  139.9705  170.4510 F       1  UNL1       -0.2042
     18 C         139.6457  141.9127  170.0296 C.ar    1  UNL1        0.0298
     19 C         140.7605  142.5158  169.2275 C.ar    1  UNL1        0.0068
     20 C         140.8645  143.4827  160.3894 C.ar    1  UNL1        0.1655
     21 N         140.0955  142.2305  160.0881 N.ar    1  UNL1       -0.2116
     22 C         139.1175  142.5393  158.9935 C.ar    1  UNL1        0.2429
     23 N         139.2820  143.9823  158.6182 N.ar    1  UNL1       -0.1848
     24 S         140.3617  144.5653  159.4810 S.2     1  UNL1        0.0372
     25 C         138.1455  141.5745  158.3815 C.3     1  UNL1        0.4529
     26 F         137.1736  140.6096  157.7696 F       1  UNL1       -0.1631
     27 F         138.8679  140.4331  159.0338 F       1  UNL1       -0.1631
     28 F         137.4232  142.7159  157.7292 F       1  UNL1       -0.1631
@<TRIPOS>BOND
     1     2     1    1
     2     2     3    1
     3     3     4   ar
     4     4     5   ar
     5     5     6   ar
     6     6    20    1
     7    20    21   ar
     8    21    22   ar
     9    22    25    1
    10    25    26    1
    11    25    27    1
    12    25    28    1
    13    22    23   ar
    14    23    24   ar
    15     6     7   ar
    16     7     8    1
    17     8     9    1
    18     9    10    1
    19    10    11   am
    20    11    12    2
    21    11    13    1
    22    13    14   ar
    23    14    15   ar
    24    15    16   ar
    25    16    17    1
    26    16    18   ar
    27    18    19   ar
    28    10     2    1
    29    19    13   ar
    30     7     3   ar
    31    24    20   ar
@<TRIPOS>MOLECULE
*****
 28 31 0 0 0
SMALL
GASTEIGER

@<TRIPOS>ATOM
      1 C         138.3893  137.6989  162.9009 C.3     1  UNL1        0.0298
      2 C         139.1858  138.6750  163.7152 C.3     1  UNL1        0.1343
      3 C         138.9244  138.8143  165.1856 C.ar    1  UNL1        0.1615
      4 N         137.9540  138.1296  166.1018 N.ar    1  UNL1       -0.1316
      5 N         138.1506  138.6826  167.4822 N.ar    1  UNL1       -0.1268
      6 C         139.2427  139.7090  167.4192 C.ar    1  UNL1        0.1917
      7 N         139.7209  139.7904  165.9998 N.ar    1  UNL1       -0.2940
      8 C         140.7787  140.6272  165.3435 C.3     1  UNL1        0.1302
      9 C         141.0400  140.4879  163.8730 C.3     1  UNL1        0.1186
     10 N         140.2436  139.5119  163.0589 N.am    1  UNL1       -0.2688
     11 C         140.5050  139.3726  161.5883 C.2     1  UNL1        0.2494
     12 O         139.7085  138.3965  160.7742 O.2     1  UNL1       -0.2699
     13 C         141.5628  140.2095  160.9320 C.ar    1  UNL1        0.0537
     14 C         142.9667  139.6929  160.8221 C.ar    1  UNL1        0.0068
     15 C         144.0245  140.5298  160.1658 C.ar    1  UNL1        0.0298
     16 C         143.6784  141.8831  159.6194 C.ar    1  UNL1        0.1401
     17 F         144.7361  142.7201  158.9631 F       1  UNL1       -0.2042
     18 C         142.2743  142.3997  159.7293 C.ar    1  UNL1        0.0298
     19 C         141.2165  141.5628  160.3856 C.ar    1  UNL1        0.0068
     20 C         139.7647  140.5128  168.5730 C.ar    1  UNL1        0.1655
     21 N         140.9830  141.3878  168.5583 N.ar    1  UNL1       -0.2116
     22 C         141.1314  141.9986  169.9203 C.ar    1  UNL1        0.2429
     23 N         140.0048  141.5011  170.7767 N.ar    1  UNL1       -0.1848
     24 S         139.1602  140.5828  169.9440 S.2     1  UNL1        0.0372
     25 C         142.2159  142.9414  170.3504 C.3     1  UNL1        0.4529
     26 F         143.3004  143.8842  170.7805 F       1  UNL1       -0.1631
     27 F         141.2922  144.1031  170.1331 F       1  UNL1       -0.1631
     28 F         143.1396  141.7797  170.5677 F       1  UNL1       -0.1631
@<TRIPOS>BOND
     1     2     1    1
     2     2     3    1
     3     3     4   ar
     4     4     5   ar
     5     5     6   ar
     6     6    20    1
     7    20    21   ar
     8    21    22   ar
     9    22    25    1
    10    25    26    1
    11    25    27    1
    12    25    28    1
    13    22    23   ar
    14    23    24   ar
    15     6     7   ar
    16     7     8    1
    17     8     9    1
    18     9    10    1
    19    10    11   am
    20    11    12    2
    21    11    13    1
    22    13    14   ar
    23    14    15   ar
    24    15    16   ar
    25    16    17    1
    26    16    18   ar
    27    18    19   ar
    28    10     2    1
    29    19    13   ar
    30     7     3   ar
    31    24    20   ar
@<TRIPOS>MOLECULE
*****
 28 31 0 0 0
SMALL
GASTEIGER

@<TRIPOS>ATOM
      1 C         138.7143  144.7833  165.1518 C.3     1  UNL1        0.0298
      2 C         139.1501  143.4827  164.5447 C.3     1  UNL1        0.1343
      3 C         138.9228  143.2230  163.0849 C.ar    1  UNL1        0.1615
      4 N         138.2993  144.0538  162.0028 N.ar    1  UNL1       -0.1316
      5 N         138.3498  143.2667  160.7270 N.ar    1  UNL1       -0.1268
      6 C         139.0044  141.9494  161.0205 C.ar    1  UNL1        0.1917
      7 N         139.3586  141.9224  162.4778 N.ar    1  UNL1       -0.2940
      8 C         140.0216  140.8815  163.3305 C.3     1  UNL1        0.1302
      9 C         140.2488  141.1413  164.7902 C.3     1  UNL1        0.1186
     10 N         139.8131  142.4418  165.3973 N.am    1  UNL1       -0.2688
     11 C         140.0404  142.7016  166.8572 C.2     1  UNL1        0.2494
     12 O         139.6046  144.0022  167.4642 O.2     1  UNL1       -0.2699
     13 C         140.7034  141.6607  167.7098 C.ar    1  UNL1        0.0537
     14 C         139.8887  140.8519  168.6753 C.ar    1  UNL1        0.0068
     15 C         140.5518  139.8110  169.5280 C.ar    1  UNL1        0.0298
     16 C         142.0294  139.5790  169.4151 C.ar    1  UNL1        0.1401
     17 F         142.6925  138.5382  170.2677 F       1  UNL1       -0.2042
     18 C         142.8441  140.3879  168.4496 C.ar    1  UNL1        0.0298
     19 C         142.1811  141.4287  167.5969 C.ar    1  UNL1        0.0068
     20 C         139.2600  140.8518  160.0305 C.ar    1  UNL1        0.1655
     21 N         140.5604  140.1322  159.8282 N.ar    1  UNL1       -0.2116
     22 C         140.3641  139.1168  158.7417 C.ar    1  UNL1        0.2429
     23 N         138.9423  139.2089  158.2725 N.ar    1  UNL1       -0.1848
     24 S         138.2600  140.2812  159.0691 S.2     1  UNL1        0.0372
     25 C         141.4065  138.1747  158.2165 C.3     1  UNL1        0.4529
     26 F         142.4490  137.2326  157.6914 F       1  UNL1       -0.1631
     27 F         142.4480  138.8641  159.0473 F       1  UNL1       -0.1631
     28 F         140.3651  137.4854  157.3858 F       1  UNL1       -0.1631
@<TRIPOS>BOND
     1     2     1    1
     2     2     3    1
     3     3     4   ar
     4     4     5   ar
     5     5     6   ar
     6     6    20    1
     7    20    21   ar
     8    21    22   ar
     9    22    25    1
    10    25    26    1
    11    25    27    1
    12    25    28    1
    13    22    23   ar
    14    23    24   ar
    15     6     7   ar
    16     7     8    1
    17     8     9    1
    18     9    10    1
    19    10    11   am
    20    11    12    2
    21    11    13    1
    22    13    14   ar
    23    14    15   ar
    24    15    16   ar
    25    16    17    1
    26    16    18   ar
    27    18    19   ar
    28    10     2    1
    29    19    13   ar
    30     7     3   ar
    31    24    20   ar
@<TRIPOS>MOLECULE
*****
 28 31 0 0 0
SMALL
GASTEIGER

@<TRIPOS>ATOM
      1 C         139.6769  137.9649  161.4800 C.3     1  UNL1        0.0298
      2 C         140.5119  139.1721  161.1711 C.3     1  UNL1        0.1343
      3 C         141.5626  139.1041  160.1028 C.ar    1  UNL1        0.1615
      4 N         142.0000  137.9933  159.1945 N.ar    1  UNL1       -0.1316
      5 N         143.1052  138.5142  158.3244 N.ar    1  UNL1       -0.1268
      6 C         143.3510  139.9468  158.6949 C.ar    1  UNL1        0.1917
      7 N         142.3976  140.3114  159.7940 N.ar    1  UNL1       -0.2940
      8 C         142.1818  141.5867  160.5536 C.3     1  UNL1        0.1302
      9 C         141.1311  141.6547  161.6220 C.3     1  UNL1        0.1186
     10 N         140.2962  140.4475  161.9307 N.am    1  UNL1       -0.2688
     11 C         139.2454  140.5156  162.9991 C.2     1  UNL1        0.2494
     12 O         138.4105  139.3083  163.3079 O.2     1  UNL1       -0.2699
     13 C         139.0297  141.7909  163.7587 C.ar    1  UNL1        0.0537
     14 C         137.9695  142.7562  163.3180 C.ar    1  UNL1        0.0068
     15 C         137.7538  144.0315  164.0776 C.ar    1  UNL1        0.0298
     16 C         138.5981  144.3416  165.2779 C.ar    1  UNL1        0.1401
     17 F         138.3825  145.6169  166.0375 F       1  UNL1       -0.2042
     18 C         139.6584  143.3763  165.7186 C.ar    1  UNL1        0.0298
     19 C         139.8742  142.1009  164.9591 C.ar    1  UNL1        0.0068
     20 C         144.3710  140.8553  158.0751 C.ar    1  UNL1        0.1655
     21 N         145.2660  140.5178  156.9197 N.ar    1  UNL1       -0.2116
     22 C         146.1233  141.7147  156.6324 C.ar    1  UNL1        0.2429
     23 N         145.7581  142.7919  157.6103 N.ar    1  UNL1       -0.1848
     24 S         144.6752  142.2607  158.5019 S.2     1  UNL1        0.0372
     25 C         147.1632  141.8166  155.5562 C.3     1  UNL1        0.4529
     26 F         148.2031  141.9184  154.4799 F       1  UNL1       -0.1631
     27 F         146.1433  141.4138  154.5326 F       1  UNL1       -0.1631
     28 F         148.1831  142.2194  156.5797 F       1  UNL1       -0.1631
@<TRIPOS>BOND
     1     2     1    1
     2     2     3    1
     3     3     4   ar
     4     4     5   ar
     5     5     6   ar
     6     6    20    1
     7    20    21   ar
     8    21    22   ar
     9    22    25    1
    10    25    26    1
    11    25    27    1
    12    25    28    1
    13    22    23   ar
    14    23    24   ar
    15     6     7   ar
    16     7     8    1
    17     8     9    1
    18     9    10    1
    19    10    11   am
    20    11    12    2
    21    11    13    1
    22    13    14   ar
    23    14    15   ar
    24    15    16   ar
    25    16    17    1
    26    16    18   ar
    27    18    19   ar
    28    10     2    1
    29    19    13   ar
    30     7     3   ar
    31    24    20   ar
