@<TRIPOS>MOLECULE
*****
 34 38 0 0 0
SMALL
GASTEIGER

@<TRIPOS>ATOM
      1 N         139.8167  141.5409  165.7952 N.3     1  UNL1       -0.2678
      2 C         140.3785  142.2732  166.9776 C.3     1  UNL1        0.1023
      3 C         140.3567  141.8722  168.4229 C.ar    1  UNL1        0.0310
      4 C         141.0338  142.8953  169.2858 C.ar    1  UNL1        0.0208
      5 C         141.1219  142.6860  170.7685 C.ar    1  UNL1        0.0988
      6 N         140.5328  141.4536  171.3882 N.ar    1  UNL1       -0.2392
      7 C         139.8556  140.4305  170.5253 C.ar    1  UNL1        0.1353
      8 C         139.7676  140.6398  169.0426 C.ar    1  UNL1        0.1550
      9 O         139.0549  139.5040  168.3702 O.3     1  UNL1       -0.4727
     10 C         138.7552  139.3201  166.9120 C.3     1  UNL1        0.2215
     11 C         139.0943  140.2267  165.7660 C.3     1  UNL1        0.1061
     12 N         140.3721  143.5527  161.8084 N.pl3   1  UNL1       -0.2769
     13 C         139.0320  143.5795  162.4818 C.3     1  UNL1        0.0950
     14 C         138.8469  142.9089  163.8108 C.3     1  UNL1        0.0375
     15 C         140.0019  142.2115  164.4663 C.3     1  UNL1        0.0613
     16 C         141.3420  142.1847  163.7929 C.3     1  UNL1        0.0375
     17 C         141.5271  142.8553  162.4639 C.3     1  UNL1        0.0950
     18 N         142.5029  146.2364  157.7913 N.pl3   1  UNL1       -0.3278
     19 C         141.5366  145.4568  158.6330 C.ar    1  UNL1        0.2099
     20 N         141.7898  144.9437  160.0196 N.ar    1  UNL1       -0.1804
     21 C         140.5572  144.2232  160.4795 C.ar    1  UNL1        0.2395
     22 N         139.5422  144.2910  159.3772 N.ar    1  UNL1       -0.1349
     23 N         140.1475  145.0535  158.2359 N.ar    1  UNL1       -0.2453
     24 H         143.3969  146.4537  158.1416 H       1  UNL1        0.1451
     25 H         142.2431  146.5308  156.8885 H       1  UNL1        0.1451
     26 H         139.7099  145.2539  157.3771 H       1  UNL1        0.1919
     27 C         138.6525  139.7568  164.4117 C.3     1  UNL1        0.0461
     28 C         139.6548  139.1893  163.4509 C.ar    1  UNL1       -0.0207
     29 C         139.5434  139.4907  161.9857 C.ar    1  UNL1       -0.0034
     30 C         140.5457  138.9232  161.0249 C.ar    1  UNL1        0.0111
     31 C         141.6596  138.0543  161.5292 C.ar    1  UNL1        0.0577
     32 CL        142.6620  137.4869  160.5683 Cl      1  UNL1       -0.0822
     33 C         141.7711  137.7529  162.9943 C.ar    1  UNL1        0.0111
     34 C         140.7687  138.3204  163.9552 C.ar    1  UNL1       -0.0034
@<TRIPOS>BOND
     1    18    19    1
     2    19    20   ar
     3    20    21   ar
     4    21    12    1
     5    12    13    1
     6    13    14    1
     7    14    15    1
     8    15     1    1
     9     1     2    1
    10     2     3    1
    11     3     4   ar
    12     4     5   ar
    13     5     6   ar
    14     6     7   ar
    15     7     8   ar
    16     8     9    1
    17     9    10    1
    18    10    11    1
    19    11    27    1
    20    27    28    1
    21    28    29   ar
    22    29    30   ar
    23    30    31   ar
    24    31    32    1
    25    31    33   ar
    26    33    34   ar
    27    15    16    1
    28    16    17    1
    29    21    22   ar
    30    22    23   ar
    31    23    19   ar
    32    17    12    1
    33    11     1    1
    34    34    28   ar
    35     8     3   ar
    36    18    24    1
    37    18    25    1
    38    23    26    1
@<TRIPOS>MOLECULE
*****
 34 38 0 0 0
SMALL
GASTEIGER

@<TRIPOS>ATOM
      1 N         141.6177  141.7884  166.2213 N.3     1  UNL1       -0.2678
      2 C         140.9779  142.5272  167.3592 C.3     1  UNL1        0.1023
      3 C         140.9274  142.1485  168.8097 C.ar    1  UNL1        0.0310
      4 C         140.1847  143.1710  169.6176 C.ar    1  UNL1        0.0208
      5 C         140.0189  142.9823  171.0964 C.ar    1  UNL1        0.0988
      6 N         140.5957  141.7710  171.7673 N.ar    1  UNL1       -0.2392
      7 C         141.3384  140.7485  170.9594 C.ar    1  UNL1        0.1353
      8 C         141.5042  140.9372  169.4806 C.ar    1  UNL1        0.1550
      9 O         142.2740  139.8056  168.8666 O.3     1  UNL1       -0.4727
     10 C         142.6571  139.6057  167.4302 C.3     1  UNL1        0.2215
     11 C         142.3650  140.4882  166.2529 C.3     1  UNL1        0.1061
     12 N         141.2459  143.7289  162.1783 N.pl3   1  UNL1       -0.2769
     13 C         142.5491  143.7830  162.9192 C.3     1  UNL1        0.0950
     14 C         142.6730  143.1361  164.2669 C.3     1  UNL1        0.0375
     15 C         141.4938  142.4352  164.8737 C.3     1  UNL1        0.0613
     16 C         140.1906  142.3812  164.1328 C.3     1  UNL1        0.0375
     17 C         140.0667  143.0281  162.7851 C.3     1  UNL1        0.0950
     18 N         142.4559  145.8933  157.5166 N.pl3   1  UNL1       -0.3278
     19 C         141.6782  145.3706  158.6879 C.ar    1  UNL1        0.2099
     20 N         142.2576  144.7552  159.9269 N.ar    1  UNL1       -0.1804
     21 C         141.1221  144.3758  160.8307 C.ar    1  UNL1        0.2395
     22 N         139.8408  144.7568  160.1500 N.ar    1  UNL1       -0.1349
     23 N         140.1845  145.3717  158.8257 N.ar    1  UNL1       -0.2453
     24 H         143.4394  145.8483  157.5191 H       1  UNL1        0.1451
     25 H         141.9829  146.2815  156.7453 H       1  UNL1        0.1451
     26 H         139.5425  145.7156  158.1632 H       1  UNL1        0.1919
     27 C         142.8895  140.0067  164.9327 C.3     1  UNL1        0.0461
     28 C         141.9417  139.4817  163.8954 C.ar    1  UNL1       -0.0207
     29 C         142.1742  139.7850  162.4449 C.ar    1  UNL1       -0.0034
     30 C         141.2263  139.2600  161.4076 C.ar    1  UNL1        0.0111
     31 C         140.0461  138.4316  161.8208 C.ar    1  UNL1        0.0577
     32 CL        139.0982  137.9066  160.7835 Cl      1  UNL1       -0.0822
     33 C         139.8136  138.1283  163.2713 C.ar    1  UNL1        0.0111
     34 C         140.7614  138.6534  164.3087 C.ar    1  UNL1       -0.0034
@<TRIPOS>BOND
     1    18    19    1
     2    19    20   ar
     3    20    21   ar
     4    21    12    1
     5    12    13    1
     6    13    14    1
     7    14    15    1
     8    15     1    1
     9     1     2    1
    10     2     3    1
    11     3     4   ar
    12     4     5   ar
    13     5     6   ar
    14     6     7   ar
    15     7     8   ar
    16     8     9    1
    17     9    10    1
    18    10    11    1
    19    11    27    1
    20    27    28    1
    21    28    29   ar
    22    29    30   ar
    23    30    31   ar
    24    31    32    1
    25    31    33   ar
    26    33    34   ar
    27    15    16    1
    28    16    17    1
    29    21    22   ar
    30    22    23   ar
    31    23    19   ar
    32    17    12    1
    33    11     1    1
    34    34    28   ar
    35     8     3   ar
    36    18    24    1
    37    18    25    1
    38    23    26    1
@<TRIPOS>MOLECULE
*****
 34 38 0 0 0
SMALL
GASTEIGER

@<TRIPOS>ATOM
      1 N         139.7369  143.3125  160.4973 N.3     1  UNL1       -0.2678
      2 C         139.0197  142.8282  159.2722 C.3     1  UNL1        0.1023
      3 C         139.0676  143.3834  157.8795 C.ar    1  UNL1        0.0310
      4 C         138.1954  142.5974  156.9459 C.ar    1  UNL1        0.0208
      5 C         138.1004  142.9880  155.5008 C.ar    1  UNL1        0.0988
      6 N         138.8775  144.1647  154.9893 N.ar    1  UNL1       -0.2392
      7 C         139.7496  144.9507  155.9229 C.ar    1  UNL1        0.1353
      8 C         139.8446  144.5600  157.3679 C.ar    1  UNL1        0.1550
      9 O         140.7657  145.4721  158.1228 O.3     1  UNL1       -0.4727
     10 C         141.1373  145.4328  159.5755 C.3     1  UNL1        0.2215
     11 C         140.6794  144.4717  160.6322 C.3     1  UNL1        0.1061
     12 N         138.9588  140.9797  164.2658 N.pl3   1  UNL1       -0.2769
     13 C         139.9757  140.4906  163.2775 C.3     1  UNL1        0.0950
     14 C         140.2350  141.2682  162.0213 C.3     1  UNL1        0.0375
     15 C         139.4776  142.5349  161.7534 C.3     1  UNL1        0.0613
     16 C         138.4607  143.0241  162.7418 C.3     1  UNL1        0.0375
     17 C         138.2013  142.2464  163.9980 C.3     1  UNL1        0.0950
     18 N         136.9793  137.4766  167.6850 N.pl3   1  UNL1       -0.3278
     19 C         137.7895  138.5919  167.0936 C.ar    1  UNL1        0.2099
     20 N         137.7206  139.0759  165.6756 N.ar    1  UNL1       -0.1804
     21 C         138.6994  140.2021  165.5220 C.ar    1  UNL1        0.2395
     22 N         139.3733  140.4142  166.8452 N.ar    1  UNL1       -0.1349
     23 N         138.8109  139.4190  167.8166 N.ar    1  UNL1       -0.2453
     24 H         136.3304  136.9901  167.1269 H       1  UNL1        0.1451
     25 H         137.0964  137.2312  168.6312 H       1  UNL1        0.1451
     26 H         139.0672  139.3252  168.7625 H       1  UNL1        0.1919
     27 C         141.2378  144.7000  162.0056 C.3     1  UNL1        0.0461
     28 C         142.4482  143.9390  162.4591 C.ar    1  UNL1       -0.0207
     29 C         142.7579  143.8252  163.9224 C.ar    1  UNL1       -0.0034
     30 C         143.9684  143.0643  164.3758 C.ar    1  UNL1        0.0111
     31 C         144.8692  142.4171  163.3661 C.ar    1  UNL1        0.0577
     32 CL        146.0797  141.6561  163.8196 Cl      1  UNL1       -0.0822
     33 C         144.5596  142.5308  161.9028 C.ar    1  UNL1        0.0111
     34 C         143.3491  143.2918  161.4493 C.ar    1  UNL1       -0.0034
@<TRIPOS>BOND
     1    18    19    1
     2    19    20   ar
     3    20    21   ar
     4    21    12    1
     5    12    13    1
     6    13    14    1
     7    14    15    1
     8    15     1    1
     9     1     2    1
    10     2     3    1
    11     3     4   ar
    12     4     5   ar
    13     5     6   ar
    14     6     7   ar
    15     7     8   ar
    16     8     9    1
    17     9    10    1
    18    10    11    1
    19    11    27    1
    20    27    28    1
    21    28    29   ar
    22    29    30   ar
    23    30    31   ar
    24    31    32    1
    25    31    33   ar
    26    33    34   ar
    27    15    16    1
    28    16    17    1
    29    21    22   ar
    30    22    23   ar
    31    23    19   ar
    32    17    12    1
    33    11     1    1
    34    34    28   ar
    35     8     3   ar
    36    18    24    1
    37    18    25    1
    38    23    26    1
@<TRIPOS>MOLECULE
*****
 34 38 0 0 0
SMALL
GASTEIGER

@<TRIPOS>ATOM
      1 N         141.9422  139.3223  161.8764 N.3     1  UNL1       -0.2678
      2 C         140.9089  138.9404  160.8583 C.3     1  UNL1        0.1023
      3 C         141.0971  138.6466  159.3994 C.ar    1  UNL1        0.0310
      4 C         139.7959  138.3028  158.7373 C.ar    1  UNL1        0.0208
      5 C         139.7627  137.9744  157.2741 C.ar    1  UNL1        0.0988
      6 N         141.0307  137.9899  156.4730 N.ar    1  UNL1       -0.2392
      7 C         142.3320  138.3337  157.1351 C.ar    1  UNL1        0.1353
      8 C         142.3652  138.6621  158.5983 C.ar    1  UNL1        0.1550
      9 O         143.7582  138.9752  159.0583 O.3     1  UNL1       -0.4727
     10 C         144.2272  139.3502  160.4328 C.3     1  UNL1        0.2215
     11 C         143.4190  139.5046  161.6870 C.3     1  UNL1        0.1061
     12 N         140.4091  140.0119  166.0506 N.pl3   1  UNL1       -0.2769
     13 C         140.2364  141.0720  165.0035 C.3     1  UNL1        0.0950
     14 C         140.7474  140.8421  163.6121 C.3     1  UNL1        0.0375
     15 C         141.4312  139.5521  163.2678 C.3     1  UNL1        0.0613
     16 C         141.6039  138.4920  164.3149 C.3     1  UNL1        0.0375
     17 C         141.0928  138.7220  165.7063 C.3     1  UNL1        0.0950
     18 N         139.6617  142.0912  170.8462 N.pl3   1  UNL1       -0.3278
     19 C         139.5545  141.1975  169.6463 C.ar    1  UNL1        0.2099
     20 N         140.3142  141.3510  168.3621 N.ar    1  UNL1       -0.1804
     21 C         139.8981  140.2418  167.4419 C.ar    1  UNL1        0.2395
     22 N         138.8812  139.4028  168.1576 N.ar    1  UNL1       -0.1349
     23 N         138.6688  139.9935  169.5200 N.ar    1  UNL1       -0.2453
     24 H         140.2748  142.8614  170.8332 H       1  UNL1        0.1451
     25 H         139.1188  141.9076  171.6468 H       1  UNL1        0.1451
     26 H         138.0558  139.6511  170.2100 H       1  UNL1        0.1919
     27 C         144.1895  139.8927  162.9141 C.3     1  UNL1        0.0461
     28 C         144.1697  141.3138  163.3939 C.ar    1  UNL1       -0.0207
     29 C         144.1272  141.6085  164.8641 C.ar    1  UNL1       -0.0034
     30 C         144.1074  143.0295  165.3438 C.ar    1  UNL1        0.0111
     31 C         144.1301  144.1559  164.3535 C.ar    1  UNL1        0.0577
     32 CL        144.1103  145.5770  164.8333 Cl      1  UNL1       -0.0822
     33 C         144.1726  143.8612  162.8833 C.ar    1  UNL1        0.0111
     34 C         144.1924  142.4401  162.4035 C.ar    1  UNL1       -0.0034
@<TRIPOS>BOND
     1    18    19    1
     2    19    20   ar
     3    20    21   ar
     4    21    12    1
     5    12    13    1
     6    13    14    1
     7    14    15    1
     8    15     1    1
     9     1     2    1
    10     2     3    1
    11     3     4   ar
    12     4     5   ar
    13     5     6   ar
    14     6     7   ar
    15     7     8   ar
    16     8     9    1
    17     9    10    1
    18    10    11    1
    19    11    27    1
    20    27    28    1
    21    28    29   ar
    22    29    30   ar
    23    30    31   ar
    24    31    32    1
    25    31    33   ar
    26    33    34   ar
    27    15    16    1
    28    16    17    1
    29    21    22   ar
    30    22    23   ar
    31    23    19   ar
    32    17    12    1
    33    11     1    1
    34    34    28   ar
    35     8     3   ar
    36    18    24    1
    37    18    25    1
    38    23    26    1
@<TRIPOS>MOLECULE
*****
 34 38 0 0 0
SMALL
GASTEIGER

@<TRIPOS>ATOM
      1 N         142.6458  140.4392  162.0677 N.3     1  UNL1       -0.2678
      2 C         142.6390  139.1916  161.2350 C.3     1  UNL1        0.1023
      3 C         142.8034  139.0572  159.7501 C.ar    1  UNL1        0.0310
      4 C         142.7332  137.6223  159.3186 C.ar    1  UNL1        0.0208
      5 C         142.8749  137.2676  157.8681 C.ar    1  UNL1        0.0988
      6 N         143.0868  138.3478  156.8490 N.ar    1  UNL1       -0.2392
      7 C         143.1570  139.7826  157.2805 C.ar    1  UNL1        0.1353
      8 C         143.0153  140.1373  158.7310 C.ar    1  UNL1        0.1550
      9 O         143.1150  141.6186  158.9453 O.3     1  UNL1       -0.4727
     10 C         143.0276  142.3856  160.2314 C.3     1  UNL1        0.2215
     11 C         142.8188  141.8607  161.6210 C.3     1  UNL1        0.1061
     12 N         142.0716  139.8384  166.4902 N.pl3   1  UNL1       -0.2769
     13 C         140.9048  139.7033  165.5572 C.3     1  UNL1        0.0950
     14 C         141.0963  139.9036  164.0830 C.3     1  UNL1        0.0375
     15 C         142.4544  140.2389  163.5418 C.3     1  UNL1        0.0613
     16 C         143.6212  140.3741  164.4748 C.3     1  UNL1        0.0375
     17 C         143.4298  140.1738  165.9490 C.3     1  UNL1        0.0950
     18 N         139.9097  139.7462  171.3066 N.pl3   1  UNL1       -0.3278
     19 C         140.8865  139.5957  170.1782 C.ar    1  UNL1        0.2099
     20 N         140.6364  139.9505  168.7425 N.ar    1  UNL1       -0.1804
     21 C         141.8802  139.6381  167.9644 C.ar    1  UNL1        0.2395
     22 N         142.8990  139.0903  168.9193 N.ar    1  UNL1       -0.1349
     23 N         142.2849  139.0641  170.2876 N.ar    1  UNL1       -0.2453
     24 H         139.0101  140.1069  171.1341 H       1  UNL1        0.1451
     25 H         140.1682  139.4842  172.2197 H       1  UNL1        0.1451
     26 H         142.7227  138.7527  171.1126 H       1  UNL1        0.1919
     27 C         142.7775  142.8939  162.7076 C.3     1  UNL1        0.0461
     28 C         141.4623  143.3124  163.2949 C.ar    1  UNL1       -0.0207
     29 C         140.2789  143.5368  162.4008 C.ar    1  UNL1       -0.0034
     30 C         138.9637  143.9553  162.9882 C.ar    1  UNL1        0.0111
     31 C         138.8318  144.1495  164.4697 C.ar    1  UNL1        0.0577
     32 CL        137.5165  144.5680  165.0570 Cl      1  UNL1       -0.0822
     33 C         140.0151  143.9252  165.3638 C.ar    1  UNL1        0.0111
     34 C         141.3304  143.5067  164.7765 C.ar    1  UNL1       -0.0034
@<TRIPOS>BOND
     1    18    19    1
     2    19    20   ar
     3    20    21   ar
     4    21    12    1
     5    12    13    1
     6    13    14    1
     7    14    15    1
     8    15     1    1
     9     1     2    1
    10     2     3    1
    11     3     4   ar
    12     4     5   ar
    13     5     6   ar
    14     6     7   ar
    15     7     8   ar
    16     8     9    1
    17     9    10    1
    18    10    11    1
    19    11    27    1
    20    27    28    1
    21    28    29   ar
    22    29    30   ar
    23    30    31   ar
    24    31    32    1
    25    31    33   ar
    26    33    34   ar
    27    15    16    1
    28    16    17    1
    29    21    22   ar
    30    22    23   ar
    31    23    19   ar
    32    17    12    1
    33    11     1    1
    34    34    28   ar
    35     8     3   ar
    36    18    24    1
    37    18    25    1
    38    23    26    1
@<TRIPOS>MOLECULE
*****
 34 38 0 0 0
SMALL
GASTEIGER

@<TRIPOS>ATOM
      1 N         140.7011  139.5387  166.0262 N.3     1  UNL1       -0.2678
      2 C         141.7367  139.9272  167.0395 C.3     1  UNL1        0.1023
      3 C         141.5655  140.1529  168.5125 C.ar    1  UNL1        0.0310
      4 C         142.8631  140.5304  169.1636 C.ar    1  UNL1        0.0208
      5 C         142.9115  140.8008  170.6381 C.ar    1  UNL1        0.0988
      6 N         141.6624  140.6937  171.4617 N.ar    1  UNL1       -0.2392
      7 C         140.3649  140.3163  170.8107 C.ar    1  UNL1        0.1353
      8 C         140.3164  140.0459  169.3361 C.ar    1  UNL1        0.1550
      9 O         138.9300  139.6867  168.8901 O.3     1  UNL1       -0.4727
     10 C         138.4503  139.3458  167.5104 C.3     1  UNL1        0.2215
     11 C         139.2385  139.2800  166.2358 C.3     1  UNL1        0.1061
     12 N         142.1773  139.0901  161.7990 N.pl3   1  UNL1       -0.2769
     13 C         142.0130  140.4569  162.3950 C.3     1  UNL1        0.0950
     14 C         141.5209  140.6063  163.8041 C.3     1  UNL1        0.0375
     15 C         141.1932  139.3892  164.6172 C.3     1  UNL1        0.0613
     16 C         141.3574  138.0224  164.0212 C.3     1  UNL1        0.0375
     17 C         141.8495  137.8730  162.6121 C.3     1  UNL1        0.0950
     18 N         142.7745  137.3632  156.8451 N.pl3   1  UNL1       -0.3278
     19 C         142.9438  138.1468  158.1129 C.ar    1  UNL1        0.2099
     20 N         142.1776  137.9407  159.3857 N.ar    1  UNL1       -0.1804
     21 C         142.6693  138.9406  160.3900 C.ar    1  UNL1        0.2395
     22 N         143.7395  139.7648  159.7377 N.ar    1  UNL1       -0.1349
     23 N         143.9092  139.2742  158.3303 N.ar    1  UNL1       -0.2453
     24 H         142.1106  136.6376  156.7998 H       1  UNL1        0.1451
     25 H         143.3272  137.5745  156.0583 H       1  UNL1        0.1451
     26 H         144.5428  139.6297  157.6660 H       1  UNL1        0.1919
     27 C         138.4614  138.9059  165.0086 C.3     1  UNL1        0.0461
     28 C         138.3113  139.8904  163.8869 C.ar    1  UNL1       -0.0207
     29 C         138.1148  141.3467  164.1883 C.ar    1  UNL1       -0.0034
     30 C         137.9647  142.3311  163.0666 C.ar    1  UNL1        0.0111
     31 C         138.0111  141.8594  161.6435 C.ar    1  UNL1        0.0577
     32 CL        137.8610  142.8440  160.5218 Cl      1  UNL1       -0.0822
     33 C         138.2077  140.4033  161.3420 C.ar    1  UNL1        0.0111
     34 C         138.3578  139.4187  162.4637 C.ar    1  UNL1       -0.0034
@<TRIPOS>BOND
     1    18    19    1
     2    19    20   ar
     3    20    21   ar
     4    21    12    1
     5    12    13    1
     6    13    14    1
     7    14    15    1
     8    15     1    1
     9     1     2    1
    10     2     3    1
    11     3     4   ar
    12     4     5   ar
    13     5     6   ar
    14     6     7   ar
    15     7     8   ar
    16     8     9    1
    17     9    10    1
    18    10    11    1
    19    11    27    1
    20    27    28    1
    21    28    29   ar
    22    29    30   ar
    23    30    31   ar
    24    31    32    1
    25    31    33   ar
    26    33    34   ar
    27    15    16    1
    28    16    17    1
    29    21    22   ar
    30    22    23   ar
    31    23    19   ar
    32    17    12    1
    33    11     1    1
    34    34    28   ar
    35     8     3   ar
    36    18    24    1
    37    18    25    1
    38    23    26    1
@<TRIPOS>MOLECULE
*****
 34 38 0 0 0
SMALL
GASTEIGER

@<TRIPOS>ATOM
      1 N         139.7885  139.3493  160.0396 N.3     1  UNL1       -0.2678
      2 C         138.7509  140.0382  159.2036 C.3     1  UNL1        0.1023
      3 C         138.7255  140.2320  157.7164 C.ar    1  UNL1        0.0310
      4 C         137.4996  140.9792  157.2819 C.ar    1  UNL1        0.0208
      5 C         137.2798  141.2790  155.8287 C.ar    1  UNL1        0.0988
      6 N         138.2859  140.8317  154.8101 N.ar    1  UNL1       -0.2392
      7 C         139.5118  140.0845  155.2446 C.ar    1  UNL1        0.1353
      8 C         139.7316  139.7847  156.6977 C.ar    1  UNL1        0.1550
      9 O         141.0115  139.0331  156.9148 O.3     1  UNL1       -0.4727
     10 C         141.6014  138.5432  158.2039 C.3     1  UNL1        0.2215
     11 C         141.0571  138.6840  159.5946 C.3     1  UNL1        0.1061
     12 N         138.9899  139.2678  164.4673 N.pl3   1  UNL1       -0.2769
     13 C         139.5183  140.5153  163.8234 C.3     1  UNL1        0.0950
     14 C         139.7845  140.5424  162.3474 C.3     1  UNL1        0.0375
     15 C         139.5223  139.3222  161.5154 C.3     1  UNL1        0.0613
     16 C         138.9939  138.0747  162.1594 C.3     1  UNL1        0.0375
     17 C         138.7277  138.0475  163.6354 C.3     1  UNL1        0.0950
     18 N         139.3912  140.1409  169.6594 N.pl3   1  UNL1       -0.3278
     19 C         138.9082  139.6419  168.3298 C.ar    1  UNL1        0.2099
     20 N         139.5284  139.9416  166.9974 N.ar    1  UNL1       -0.1804
     21 C         138.7238  139.2406  165.9432 C.ar    1  UNL1        0.2395
     22 N         137.6062  138.5076  166.6242 N.ar    1  UNL1       -0.1349
     23 N         137.7201  138.7557  168.0993 N.ar    1  UNL1       -0.2453
     24 H         140.1849  140.7212  169.7086 H       1  UNL1        0.1451
     25 H         138.9144  139.8880  170.4828 H       1  UNL1        0.1451
     26 H         137.1205  138.3993  168.7940 H       1  UNL1        0.1919
     27 C         141.8918  138.0795  160.6845 C.3     1  UNL1        0.0461
     28 C         142.8684  138.9305  161.4408 C.ar    1  UNL1       -0.0207
     29 C         143.2808  138.5442  162.8303 C.ar    1  UNL1       -0.0034
     30 C         144.2574  139.3951  163.5867 C.ar    1  UNL1        0.0111
     31 C         144.8216  140.6324  162.9535 C.ar    1  UNL1        0.0577
     32 CL        145.7982  141.4834  163.7100 Cl      1  UNL1       -0.0822
     33 C         144.4091  141.0187  161.5641 C.ar    1  UNL1        0.0111
     34 C         143.4325  140.1677  160.8077 C.ar    1  UNL1       -0.0034
@<TRIPOS>BOND
     1    18    19    1
     2    19    20   ar
     3    20    21   ar
     4    21    12    1
     5    12    13    1
     6    13    14    1
     7    14    15    1
     8    15     1    1
     9     1     2    1
    10     2     3    1
    11     3     4   ar
    12     4     5   ar
    13     5     6   ar
    14     6     7   ar
    15     7     8   ar
    16     8     9    1
    17     9    10    1
    18    10    11    1
    19    11    27    1
    20    27    28    1
    21    28    29   ar
    22    29    30   ar
    23    30    31   ar
    24    31    32    1
    25    31    33   ar
    26    33    34   ar
    27    15    16    1
    28    16    17    1
    29    21    22   ar
    30    22    23   ar
    31    23    19   ar
    32    17    12    1
    33    11     1    1
    34    34    28   ar
    35     8     3   ar
    36    18    24    1
    37    18    25    1
    38    23    26    1
@<TRIPOS>MOLECULE
*****
 34 38 0 0 0
SMALL
GASTEIGER

@<TRIPOS>ATOM
      1 N         141.0722  140.6959  166.2592 N.3     1  UNL1       -0.2678
      2 C         140.4215  141.4761  167.3628 C.3     1  UNL1        0.1023
      3 C         140.7431  141.4702  168.8279 C.ar    1  UNL1        0.0310
      4 C         139.8470  142.4014  169.5894 C.ar    1  UNL1        0.0208
      5 C         140.0028  142.5449  171.0744 C.ar    1  UNL1        0.0988
      6 N         141.0546  141.7573  171.7978 N.ar    1  UNL1       -0.2392
      7 C         141.9507  140.8261  171.0363 C.ar    1  UNL1        0.1353
      8 C         141.7949  140.6826  169.5513 C.ar    1  UNL1        0.1550
      9 O         142.7848  139.7063  168.9883 O.3     1  UNL1       -0.4727
     10 C         142.9675  139.2766  167.5628 C.3     1  UNL1        0.2215
     11 C         142.2053  139.7170  166.3483 C.3     1  UNL1        0.1061
     12 N         139.4046  141.3826  162.1364 N.pl3   1  UNL1       -0.2769
     13 C         140.2502  142.4361  162.7885 C.3     1  UNL1        0.0950
     14 C         140.8060  142.2072  164.1628 C.3     1  UNL1        0.0375
     15 C         140.5163  140.9248  164.8850 C.3     1  UNL1        0.0613
     16 C         139.6708  139.8712  164.2329 C.3     1  UNL1        0.0375
     17 C         139.1150  140.1002  162.8586 C.3     1  UNL1        0.0950
     18 N         137.3648  140.5389  157.3398 N.pl3   1  UNL1       -0.3278
     19 C         137.9112  141.2236  158.5574 C.ar    1  UNL1        0.2099
     20 N         138.3890  140.5486  159.8087 N.ar    1  UNL1       -0.1804
     21 C         138.8488  141.6114  160.7622 C.ar    1  UNL1        0.2395
     22 N         138.6551  142.9434  160.1000 N.ar    1  UNL1       -0.1349
     23 N         138.0756  142.7037  158.7373 N.ar    1  UNL1       -0.2453
     24 H         137.2956  139.5571  157.3166 H       1  UNL1        0.1451
     25 H         137.0754  141.0712  156.5638 H       1  UNL1        0.1451
     26 H         137.8439  143.3962  158.0771 H       1  UNL1        0.1919
     27 C         142.6327  139.0965  165.0513 C.3     1  UNL1        0.0461
     28 C         143.3016  139.9353  164.0030 C.ar    1  UNL1       -0.0207
     29 C         142.9958  139.7074  162.5523 C.ar    1  UNL1       -0.0034
     30 C         143.6647  140.5463  161.5040 C.ar    1  UNL1        0.0111
     31 C         144.6395  141.6130  161.9064 C.ar    1  UNL1        0.0577
     32 CL        145.3085  142.4518  160.8581 Cl      1  UNL1       -0.0822
     33 C         144.9454  141.8409  163.3571 C.ar    1  UNL1        0.0111
     34 C         144.2764  141.0020  164.4054 C.ar    1  UNL1       -0.0034
@<TRIPOS>BOND
     1    18    19    1
     2    19    20   ar
     3    20    21   ar
     4    21    12    1
     5    12    13    1
     6    13    14    1
     7    14    15    1
     8    15     1    1
     9     1     2    1
    10     2     3    1
    11     3     4   ar
    12     4     5   ar
    13     5     6   ar
    14     6     7   ar
    15     7     8   ar
    16     8     9    1
    17     9    10    1
    18    10    11    1
    19    11    27    1
    20    27    28    1
    21    28    29   ar
    22    29    30   ar
    23    30    31   ar
    24    31    32    1
    25    31    33   ar
    26    33    34   ar
    27    15    16    1
    28    16    17    1
    29    21    22   ar
    30    22    23   ar
    31    23    19   ar
    32    17    12    1
    33    11     1    1
    34    34    28   ar
    35     8     3   ar
    36    18    24    1
    37    18    25    1
    38    23    26    1
@<TRIPOS>MOLECULE
*****
 34 38 0 0 0
SMALL
GASTEIGER

@<TRIPOS>ATOM
      1 N         143.3163  140.9926  165.1246 N.3     1  UNL1       -0.2678
      2 C         142.8692  140.0542  166.2060 C.3     1  UNL1        0.1023
      3 C         142.8035  140.2948  167.6852 C.ar    1  UNL1        0.0310
      4 C         142.2960  139.0867  168.4150 C.ar    1  UNL1        0.0208
      5 C         142.1536  139.1172  169.9078 C.ar    1  UNL1        0.0988
      6 N         142.5189  140.3559  170.6709 N.ar    1  UNL1       -0.2392
      7 C         143.0264  141.5640  169.9411 C.ar    1  UNL1        0.1353
      8 C         143.1688  141.5335  168.4482 C.ar    1  UNL1        0.1550
      9 O         143.6899  142.8374  167.9206 O.3     1  UNL1       -0.4727
     10 C         143.9745  143.2247  166.4997 C.3     1  UNL1        0.2215
     11 C         143.8082  142.4037  165.2554 C.3     1  UNL1        0.1061
     12 N         143.1616  139.3591  160.9345 N.pl3   1  UNL1       -0.2769
     13 C         141.9045  139.8335  161.6014 C.3     1  UNL1        0.0950
     14 C         141.9561  140.3780  162.9982 C.3     1  UNL1        0.0375
     15 C         143.2647  140.4481  163.7280 C.3     1  UNL1        0.0613
     16 C         144.5218  139.9737  163.0610 C.3     1  UNL1        0.0375
     17 C         144.4702  139.4292  161.6643 C.3     1  UNL1        0.0950
     18 N         142.1314  136.2538  156.7901 N.pl3   1  UNL1       -0.3278
     19 C         142.6364  137.3873  157.6328 C.ar    1  UNL1        0.2099
     20 N         142.4419  137.5408  159.1121 N.ar    1  UNL1       -0.1804
     21 C         143.1100  138.8146  159.5378 C.ar    1  UNL1        0.2395
     22 N         143.7174  139.4484  158.3214 N.ar    1  UNL1       -0.1349
     23 N         143.4247  138.5662  157.1440 N.ar    1  UNL1       -0.2453
     24 H         141.6204  135.5217  157.2049 H       1  UNL1        0.1451
     25 H         142.3108  136.2421  155.8221 H       1  UNL1        0.1451
     26 H         143.7014  138.7318  156.2139 H       1  UNL1        0.1919
     27 C         144.1835  143.0836  163.9721 C.3     1  UNL1        0.0461
     28 C         143.1307  143.7632  163.1477 C.ar    1  UNL1       -0.0207
     29 C         142.1240  144.6588  163.8070 C.ar    1  UNL1       -0.0034
     30 C         141.0712  145.3385  162.9826 C.ar    1  UNL1        0.0111
     31 C         141.0250  145.1226  161.4989 C.ar    1  UNL1        0.0577
     32 CL        139.9722  145.8023  160.6745 Cl      1  UNL1       -0.0822
     33 C         142.0316  144.2271  160.8396 C.ar    1  UNL1        0.0111
     34 C         143.0845  143.5474  161.6640 C.ar    1  UNL1       -0.0034
@<TRIPOS>BOND
     1    18    19    1
     2    19    20   ar
     3    20    21   ar
     4    21    12    1
     5    12    13    1
     6    13    14    1
     7    14    15    1
     8    15     1    1
     9     1     2    1
    10     2     3    1
    11     3     4   ar
    12     4     5   ar
    13     5     6   ar
    14     6     7   ar
    15     7     8   ar
    16     8     9    1
    17     9    10    1
    18    10    11    1
    19    11    27    1
    20    27    28    1
    21    28    29   ar
    22    29    30   ar
    23    30    31   ar
    24    31    32    1
    25    31    33   ar
    26    33    34   ar
    27    15    16    1
    28    16    17    1
    29    21    22   ar
    30    22    23   ar
    31    23    19   ar
    32    17    12    1
    33    11     1    1
    34    34    28   ar
    35     8     3   ar
    36    18    24    1
    37    18    25    1
    38    23    26    1
