@<TRIPOS>MOLECULE
*****
 53 59 0 0 0
SMALL
GASTEIGER

@<TRIPOS>ATOM
      1 C         141.6256  141.8649  164.8732 C.3     1  UNL1        0.0236
      2 C         141.6183  140.9717  163.6681 C.3     1  UNL1        0.0257
      3 C         141.6662  141.5678  162.2924 C.3     1  UNL1        0.0940
      4 N         141.7214  143.0570  162.1218 N.am    1  UNL1       -0.2760
      5 C         141.7693  143.6531  160.7462 C.2     1  UNL1        0.2499
      6 O         141.8245  145.1423  160.5756 O.2     1  UNL1       -0.2699
      7 C         141.7287  143.9502  163.3269 C.3     1  UNL1        0.0940
      8 C         141.6808  143.3542  164.7025 C.3     1  UNL1        0.0257
      9 C         141.7620  142.7598  159.5412 C.ar    1  UNL1        0.0656
     10 C         143.0571  142.2912  158.9470 C.ar    1  UNL1        0.0276
     11 C         143.0497  141.3979  157.7420 C.ar    1  UNL1        0.1494
     12 C         141.7472  140.9733  157.1311 C.ar    1  UNL1        0.1594
     13 F         141.7399  140.0801  155.9261 F       1  UNL1       -0.2027
     14 C         140.4520  141.4420  157.7252 C.ar    1  UNL1        0.0426
     15 C         140.4594  142.3352  158.9303 C.ar    1  UNL1        0.0643
     16 CL        139.1643  142.8039  159.5244 Cl      1  UNL1       -0.0820
     17 S         144.3448  140.9293  157.1479 S.O2    1  UNL1        0.0626
     18 O         144.2454  141.9914  156.0934 O.2     1  UNL1       -0.1529
     19 O         144.4442  139.8671  158.2024 O.2     1  UNL1       -0.1529
     20 N         145.6400  140.4606  156.5537 N.3     1  UNL1       -0.1706
     21 H         145.4949  139.4964  156.2544 H       1  UNL1        0.1491
     22 C         146.2378  141.1907  155.3876 C.3     1  UNL1        0.1944
     23 C         147.6477  141.6970  155.4626 C.3     1  UNL1        0.4134
     24 F         149.0577  142.2034  155.5376 F       1  UNL1       -0.1684
     25 F         147.8649  141.3043  154.0313 F       1  UNL1       -0.1684
     26 F         147.4305  142.0897  156.8940 F       1  UNL1       -0.1684
     27 C         141.6121  142.2925  166.3109 C.ar    1  UNL1       -0.0204
     28 C         140.3717  142.8930  166.9031 C.ar    1  UNL1       -0.0041
     29 C         140.3582  143.3207  168.3409 C.ar    1  UNL1        0.0020
     30 C         141.5852  143.1477  169.1863 C.ar    1  UNL1        0.0296
     31 C         142.8256  142.5471  168.5940 C.ar    1  UNL1        0.1398
     32 F         144.0524  142.3742  169.4394 F       1  UNL1       -0.2042
     33 C         142.8389  142.1195  167.1563 C.ar    1  UNL1        0.0254
     34 C         141.5657  140.5242  165.5430 C.3     1  UNL1        0.0215
     35 C         140.3287  139.6833  165.4290 C.3     1  UNL1        0.0723
     36 C         140.2692  139.6482  165.2881 C.3     1  UNL1        0.0893
     37 C         139.2886  140.7609  165.5129 C.3     1  UNL1        0.0386
     38 C         138.2604  141.0771  164.4675 C.3     1  UNL1        0.0594
     39 C         137.4490  141.0372  163.2065 C.3     1  UNL1        0.0174
     40 C         137.9877  139.9350  162.3434 C.3     1  UNL1        0.0174
     41 C         139.1320  139.2937  163.0708 C.3     1  UNL1        0.0594
     42 C         140.2216  138.8519  164.0179 C.3     1  UNL1        0.0386
     43 N         139.3006  139.9995  164.3837 N.3     1  UNL1       -0.2751
     44 C         142.9395  138.5913  164.6189 C.3     1  UNL1        0.0718
     45 C         142.6745  138.7934  166.0813 C.ar    1  UNL1        0.1207
     46 N         143.3571  138.6275  167.4067 N.ar    1  UNL1       -0.2309
     47 C         142.4019  139.0635  168.4779 C.ar    1  UNL1        0.0983
     48 C         142.5268  139.1202  169.9716 C.ar    1  UNL1        0.0206
     49 C         141.3788  139.6125  170.8020 C.ar    1  UNL1        0.0016
     50 C         140.1058  140.0479  170.1388 C.ar    1  UNL1        0.0016
     51 C         139.9809  139.9911  168.6451 C.ar    1  UNL1        0.0188
     52 C         141.1289  139.4989  167.8147 C.ar    1  UNL1        0.0785
     53 N         141.2974  139.3320  166.3335 N.ar    1  UNL1       -0.3167
@<TRIPOS>BOND
     1    44    45    1
     2    45    46   ar
     3    46    47   ar
     4    47    48   ar
     5    48    49   ar
     6    49    50   ar
     7    50    51   ar
     8    51    52   ar
     9    52    53   ar
    10    53    36    1
    11    36    37    1
    12    37    38    1
    13    38    39    1
    14    39    40    1
    15    40    41    1
    16    41    42    1
    17    41    43    1
    18    43    35    1
    19    35    34    1
    20    34     1    1
    21     1    27    1
    22    27    28   ar
    23    28    29   ar
    24    29    30   ar
    25    30    31   ar
    26    31    32    1
    27    31    33   ar
    28     1     2    1
    29     2     3    1
    30     3     4    1
    31     4     5   am
    32     5     6    2
    33     5     9    1
    34     9    10   ar
    35    10    11   ar
    36    11    17    1
    37    17    18    2
    38    17    19    2
    39    17    20    1
    40    20    22    1
    41    22    23    1
    42    23    24    1
    43    23    25    1
    44    23    26    1
    45    11    12   ar
    46    12    13    1
    47    12    14   ar
    48    14    15   ar
    49    15    16    1
    50     4     7    1
    51     7     8    1
    52    53    45   ar
    53    42    36    1
    54     8     1    1
    55    52    47   ar
    56    43    38    1
    57    33    27   ar
    58    15     9   ar
    59    20    21    1
@<TRIPOS>MOLECULE
*****
 53 59 0 0 0
SMALL
GASTEIGER

@<TRIPOS>ATOM
      1 C         140.3405  142.3074  161.6330 C.3     1  UNL1        0.0236
      2 C         141.2196  141.7503  160.5528 C.3     1  UNL1        0.0257
      3 C         140.6069  141.0974  159.3493 C.3     1  UNL1        0.0940
      4 N         139.1150  141.0017  159.2260 N.am    1  UNL1       -0.2760
      5 C         138.5023  140.3489  158.0224 C.2     1  UNL1        0.2499
      6 O         137.0105  140.2532  157.8991 O.2     1  UNL1       -0.2699
      7 C         138.2359  141.5588  160.3061 C.3     1  UNL1        0.0940
      8 C         138.8486  142.2116  161.5096 C.3     1  UNL1        0.0257
      9 C         139.3815  139.7918  156.9423 C.ar    1  UNL1        0.0656
     10 C         139.9698  138.4196  157.0872 C.ar    1  UNL1        0.0276
     11 C         140.8490  137.8626  156.0071 C.ar    1  UNL1        0.1494
     12 C         141.1399  138.6778  154.7820 C.ar    1  UNL1        0.1594
     13 F         142.0191  138.1207  153.7019 F       1  UNL1       -0.2027
     14 C         140.5517  140.0500  154.6371 C.ar    1  UNL1        0.0426
     15 C         139.6725  140.6070  155.7172 C.ar    1  UNL1        0.0643
     16 CL        139.0843  141.9792  155.5723 Cl      1  UNL1       -0.0820
     17 S         141.4372  136.4904  156.1520 S.O2    1  UNL1        0.0626
     18 O         142.5056  137.0430  157.0481 O.2     1  UNL1       -0.1529
     19 O         140.3688  135.9377  155.2559 O.2     1  UNL1       -0.1529
     20 N         142.0255  135.1181  156.2969 N.3     1  UNL1       -0.1706
     21 H         141.9262  134.6581  155.3920 H       1  UNL1        0.1491
     22 C         143.4584  134.9563  156.7102 C.3     1  UNL1        0.1944
     23 C         143.9255  133.6612  157.3055 C.3     1  UNL1        0.4134
     24 F         144.3926  132.3661  157.9009 F       1  UNL1       -0.1684
     25 F         144.1941  133.1259  155.9303 F       1  UNL1       -0.1684
     26 F         143.6568  134.1966  158.6808 F       1  UNL1       -0.1684
     27 C         139.9298  142.9787  162.9100 C.ar    1  UNL1       -0.0204
     28 C         139.2960  144.3377  162.8728 C.ar    1  UNL1       -0.0041
     29 C         138.8854  145.0090  164.1498 C.ar    1  UNL1        0.0020
     30 C         139.1087  144.3213  165.4641 C.ar    1  UNL1        0.0296
     31 C         139.7425  142.9622  165.5013 C.ar    1  UNL1        0.1398
     32 F         139.9657  142.2746  166.8155 F       1  UNL1       -0.2042
     33 C         140.1531  142.2910  164.2242 C.ar    1  UNL1        0.0254
     34 C         141.6897  142.6362  162.1998 C.3     1  UNL1        0.0215
     35 C         142.5473  143.6754  161.5404 C.3     1  UNL1        0.0723
     36 C         142.5704  143.6739  161.3852 C.3     1  UNL1        0.0893
     37 C         141.5000  144.7211  161.2961 C.3     1  UNL1        0.0386
     38 C         141.1074  145.2806  159.9608 C.3     1  UNL1        0.0594
     39 C         141.0459  145.5388  158.4845 C.3     1  UNL1        0.0174
     40 C         142.0551  144.6527  157.8165 C.3     1  UNL1        0.0174
     41 C         142.7404  143.8468  158.8799 C.3     1  UNL1        0.0594
     42 C         143.2480  143.1863  160.1390 C.3     1  UNL1        0.0386
     43 N         142.1547  144.2348  160.2053 N.3     1  UNL1       -0.2751
     44 C         142.6357  145.3134  163.8354 C.3     1  UNL1        0.0718
     45 C         143.0229  143.8750  164.0119 C.ar    1  UNL1        0.1207
     46 N         143.4615  142.9268  165.0882 N.ar    1  UNL1       -0.2309
     47 C         143.6728  141.5803  164.4619 C.ar    1  UNL1        0.0983
     48 C         144.1059  140.2635  165.0351 C.ar    1  UNL1        0.0206
     49 C         144.2309  139.0628  164.1449 C.ar    1  UNL1        0.0016
     50 C         143.9228  139.1788  162.6815 C.ar    1  UNL1        0.0016
     51 C         143.4897  140.4955  162.1083 C.ar    1  UNL1        0.0188
     52 C         143.3647  141.6963  162.9985 C.ar    1  UNL1        0.0785
     53 N         142.9630  143.1145  162.7204 N.ar    1  UNL1       -0.3167
@<TRIPOS>BOND
     1    44    45    1
     2    45    46   ar
     3    46    47   ar
     4    47    48   ar
     5    48    49   ar
     6    49    50   ar
     7    50    51   ar
     8    51    52   ar
     9    52    53   ar
    10    53    36    1
    11    36    37    1
    12    37    38    1
    13    38    39    1
    14    39    40    1
    15    40    41    1
    16    41    42    1
    17    41    43    1
    18    43    35    1
    19    35    34    1
    20    34     1    1
    21     1    27    1
    22    27    28   ar
    23    28    29   ar
    24    29    30   ar
    25    30    31   ar
    26    31    32    1
    27    31    33   ar
    28     1     2    1
    29     2     3    1
    30     3     4    1
    31     4     5   am
    32     5     6    2
    33     5     9    1
    34     9    10   ar
    35    10    11   ar
    36    11    17    1
    37    17    18    2
    38    17    19    2
    39    17    20    1
    40    20    22    1
    41    22    23    1
    42    23    24    1
    43    23    25    1
    44    23    26    1
    45    11    12   ar
    46    12    13    1
    47    12    14   ar
    48    14    15   ar
    49    15    16    1
    50     4     7    1
    51     7     8    1
    52    53    45   ar
    53    42    36    1
    54     8     1    1
    55    52    47   ar
    56    43    38    1
    57    33    27   ar
    58    15     9   ar
    59    20    21    1
@<TRIPOS>MOLECULE
*****
 53 59 0 0 0
SMALL
GASTEIGER

@<TRIPOS>ATOM
      1 C         141.7863  142.0143  162.5210 C.3     1  UNL1        0.0236
      2 C         141.4541  141.3621  161.2117 C.3     1  UNL1        0.0257
      3 C         140.8159  142.1628  160.1155 C.3     1  UNL1        0.0940
      4 N         140.5099  143.6157  160.3285 N.am    1  UNL1       -0.2760
      5 C         139.8718  144.4164  159.2323 C.2     1  UNL1        0.2499
      6 O         139.5658  145.8693  159.4454 O.2     1  UNL1       -0.2699
      7 C         140.8422  144.2679  161.6378 C.3     1  UNL1        0.0940
      8 C         141.4803  143.4673  162.7340 C.3     1  UNL1        0.0257
      9 C         139.5395  143.7641  157.9231 C.ar    1  UNL1        0.0656
     10 C         138.3708  142.8289  157.8263 C.ar    1  UNL1        0.0276
     11 C         138.0386  142.1766  156.5170 C.ar    1  UNL1        0.1494
     12 C         138.8753  142.4595  155.3045 C.ar    1  UNL1        0.1594
     13 F         138.5431  141.8072  153.9953 F       1  UNL1       -0.2027
     14 C         140.0441  143.3947  155.4014 C.ar    1  UNL1        0.0426
     15 C         140.3762  144.0470  156.7106 C.ar    1  UNL1        0.0643
     16 CL        141.5450  144.9822  156.8075 Cl      1  UNL1       -0.0820
     17 S         136.8698  141.2415  156.4201 S.O2    1  UNL1        0.0626
     18 O         136.0954  142.2866  155.6732 O.2     1  UNL1       -0.1529
     19 O         137.6442  140.1963  157.1671 O.2     1  UNL1       -0.1529
     20 N         135.7010  140.3063  156.3233 N.3     1  UNL1       -0.1706
     21 H         135.3766  140.1406  157.2760 H       1  UNL1        0.1491
     22 C         134.4966  140.6923  155.5168 C.3     1  UNL1        0.1944
     23 C         133.1204  140.3992  156.0368 C.3     1  UNL1        0.4134
     24 F         131.7443  140.1061  156.5567 F       1  UNL1       -0.1684
     25 F         133.5014  138.9620  156.2350 F       1  UNL1       -0.1684
     26 F         132.7395  141.8365  155.8385 F       1  UNL1       -0.1684
     27 C         142.2849  142.1823  163.9257 C.ar    1  UNL1       -0.0204
     28 C         141.5192  141.5864  165.0696 C.ar    1  UNL1       -0.0041
     29 C         142.0179  141.7544  166.4744 C.ar    1  UNL1        0.0020
     30 C         143.2822  142.5183  166.7350 C.ar    1  UNL1        0.0296
     31 C         144.0479  143.1142  165.5910 C.ar    1  UNL1        0.1398
     32 F         145.3122  143.8780  165.8518 F       1  UNL1       -0.2042
     33 C         143.5492  142.9461  164.1864 C.ar    1  UNL1        0.0254
     34 C         142.2654  140.6198  162.7957 C.3     1  UNL1        0.0215
     35 C         143.4323  140.0640  162.0345 C.3     1  UNL1        0.0723
     36 C         143.4422  140.0722  161.8780 C.3     1  UNL1        0.0893
     37 C         144.2821  141.2994  162.0748 C.3     1  UNL1        0.0386
     38 C         144.8220  142.0372  160.8856 C.3     1  UNL1        0.0594
     39 C         145.1321  142.4328  159.4723 C.3     1  UNL1        0.0174
     40 C         144.4740  141.4418  158.5586 C.3     1  UNL1        0.0174
     41 C         143.7571  140.4338  159.4072 C.3     1  UNL1        0.0594
     42 C         143.1422  139.5830  160.4922 C.3     1  UNL1        0.0386
     43 N         143.9722  140.8018  160.8454 N.3     1  UNL1       -0.2751
     44 C         145.0260  139.6337  164.3265 C.3     1  UNL1        0.0718
     45 C         143.6370  139.0676  164.3474 C.ar    1  UNL1        0.1207
     46 N         142.7217  138.3021  165.2563 N.ar    1  UNL1       -0.2309
     47 C         141.4212  138.0957  164.5378 C.ar    1  UNL1        0.0983
     48 C         140.1498  137.4093  164.9408 C.ar    1  UNL1        0.0206
     49 C         138.9901  137.3609  163.9908 C.ar    1  UNL1        0.0016
     50 C         139.1017  137.9988  162.6378 C.ar    1  UNL1        0.0016
     51 C         140.3731  138.6852  162.2348 C.ar    1  UNL1        0.0188
     52 C         141.5328  138.7337  163.1849 C.ar    1  UNL1        0.0785
     53 N         142.9023  139.3343  163.0672 N.ar    1  UNL1       -0.3167
@<TRIPOS>BOND
     1    44    45    1
     2    45    46   ar
     3    46    47   ar
     4    47    48   ar
     5    48    49   ar
     6    49    50   ar
     7    50    51   ar
     8    51    52   ar
     9    52    53   ar
    10    53    36    1
    11    36    37    1
    12    37    38    1
    13    38    39    1
    14    39    40    1
    15    40    41    1
    16    41    42    1
    17    41    43    1
    18    43    35    1
    19    35    34    1
    20    34     1    1
    21     1    27    1
    22    27    28   ar
    23    28    29   ar
    24    29    30   ar
    25    30    31   ar
    26    31    32    1
    27    31    33   ar
    28     1     2    1
    29     2     3    1
    30     3     4    1
    31     4     5   am
    32     5     6    2
    33     5     9    1
    34     9    10   ar
    35    10    11   ar
    36    11    17    1
    37    17    18    2
    38    17    19    2
    39    17    20    1
    40    20    22    1
    41    22    23    1
    42    23    24    1
    43    23    25    1
    44    23    26    1
    45    11    12   ar
    46    12    13    1
    47    12    14   ar
    48    14    15   ar
    49    15    16    1
    50     4     7    1
    51     7     8    1
    52    53    45   ar
    53    42    36    1
    54     8     1    1
    55    52    47   ar
    56    43    38    1
    57    33    27   ar
    58    15     9   ar
    59    20    21    1
@<TRIPOS>MOLECULE
*****
 53 59 0 0 0
SMALL
GASTEIGER

@<TRIPOS>ATOM
      1 C         139.8716  140.1364  162.3169 C.3     1  UNL1        0.0236
      2 C         140.5806  141.2457  161.5981 C.3     1  UNL1        0.0257
      3 C         140.3566  141.4513  160.1292 C.3     1  UNL1        0.0940
      4 N         139.4235  140.5476  159.3791 N.am    1  UNL1       -0.2760
      5 C         139.1995  140.7532  157.9102 C.2     1  UNL1        0.2499
      6 O         138.2664  139.8496  157.1602 O.2     1  UNL1       -0.2699
      7 C         138.7144  139.4383  160.0979 C.3     1  UNL1        0.0940
      8 C         138.9384  139.2327  161.5667 C.3     1  UNL1        0.0257
      9 C         139.9086  141.8626  157.1916 C.ar    1  UNL1        0.0656
     10 C         139.2062  143.1642  156.9422 C.ar    1  UNL1        0.0276
     11 C         139.9154  144.2735  156.2234 C.ar    1  UNL1        0.1494
     12 C         141.3271  144.0811  155.7541 C.ar    1  UNL1        0.1594
     13 F         142.0362  145.1904  155.0354 F       1  UNL1       -0.2027
     14 C         142.0295  142.7794  156.0035 C.ar    1  UNL1        0.0426
     15 C         141.3203  141.6702  156.7222 C.ar    1  UNL1        0.0643
     16 CL        142.0227  140.3685  156.9716 Cl      1  UNL1       -0.0820
     17 S         139.2129  145.5752  155.9741 S.O2    1  UNL1        0.0626
     18 O         140.0273  146.2218  157.0552 O.2     1  UNL1       -0.1529
     19 O         138.3986  144.9286  154.8930 O.2     1  UNL1       -0.1529
     20 N         138.5105  146.8769  155.7247 N.3     1  UNL1       -0.1706
     21 H         137.5172  146.7114  155.8873 H       1  UNL1        0.1491
     22 C         138.8824  148.0939  156.5188 C.3     1  UNL1        0.1944
     23 C         138.4641  149.4546  156.0461 C.3     1  UNL1        0.4134
     24 F         138.0458  150.8153  155.5734 F       1  UNL1       -0.1684
     25 F         137.8548  149.7335  157.3881 F       1  UNL1       -0.1684
     26 F         139.0734  149.1756  154.7040 F       1  UNL1       -0.1684
     27 C         139.4337  139.2318  163.4305 C.ar    1  UNL1       -0.0204
     28 C         139.8180  137.7820  163.4141 C.ar    1  UNL1       -0.0041
     29 C         139.3801  136.8774  164.5277 C.ar    1  UNL1        0.0020
     30 C         138.5579  137.4227  165.6576 C.ar    1  UNL1        0.0296
     31 C         138.1735  138.8725  165.6739 C.ar    1  UNL1        0.1398
     32 F         137.3513  139.4177  166.8037 F       1  UNL1       -0.2042
     33 C         138.6115  139.7770  164.5602 C.ar    1  UNL1        0.0254
     34 C         140.6526  140.7259  163.4537 C.3     1  UNL1        0.0215
     35 C         142.1350  140.5121  163.5357 C.3     1  UNL1        0.0723
     36 C         142.2234  140.5320  163.4075 C.3     1  UNL1        0.0893
     37 C         142.2159  139.0385  163.2672 C.3     1  UNL1        0.0386
     38 C         142.9442  138.3886  162.1282 C.3     1  UNL1        0.0594
     39 C         143.7694  138.1873  160.8919 C.3     1  UNL1        0.0174
     40 C         144.1984  139.5365  160.3963 C.3     1  UNL1        0.0174
     41 C         143.6385  140.5716  161.3264 C.3     1  UNL1        0.0594
     42 C         142.9591  141.3753  162.4089 C.3     1  UNL1        0.0386
     43 N         142.8632  139.8621  162.3968 N.3     1  UNL1       -0.2751
     44 C         142.0822  139.3264  166.0949 C.3     1  UNL1        0.0718
     45 C         141.3743  140.6397  165.9398 C.ar    1  UNL1        0.1207
     46 N         140.5643  141.6109  166.7465 N.ar    1  UNL1       -0.2309
     47 C         140.1847  142.7534  165.8517 C.ar    1  UNL1        0.0983
     48 C         139.3894  144.0008  166.0994 C.ar    1  UNL1        0.0206
     49 C         139.1695  144.9832  164.9875 C.ar    1  UNL1        0.0016
     50 C         139.7448  144.7181  163.6278 C.ar    1  UNL1        0.0016
     51 C         140.5400  143.4706  163.3801 C.ar    1  UNL1        0.0188
     52 C         140.7599  142.4883  164.4920 C.ar    1  UNL1        0.0785
     53 N         141.4952  141.1819  164.5465 N.ar    1  UNL1       -0.3167
@<TRIPOS>BOND
     1    44    45    1
     2    45    46   ar
     3    46    47   ar
     4    47    48   ar
     5    48    49   ar
     6    49    50   ar
     7    50    51   ar
     8    51    52   ar
     9    52    53   ar
    10    53    36    1
    11    36    37    1
    12    37    38    1
    13    38    39    1
    14    39    40    1
    15    40    41    1
    16    41    42    1
    17    41    43    1
    18    43    35    1
    19    35    34    1
    20    34     1    1
    21     1    27    1
    22    27    28   ar
    23    28    29   ar
    24    29    30   ar
    25    30    31   ar
    26    31    32    1
    27    31    33   ar
    28     1     2    1
    29     2     3    1
    30     3     4    1
    31     4     5   am
    32     5     6    2
    33     5     9    1
    34     9    10   ar
    35    10    11   ar
    36    11    17    1
    37    17    18    2
    38    17    19    2
    39    17    20    1
    40    20    22    1
    41    22    23    1
    42    23    24    1
    43    23    25    1
    44    23    26    1
    45    11    12   ar
    46    12    13    1
    47    12    14   ar
    48    14    15   ar
    49    15    16    1
    50     4     7    1
    51     7     8    1
    52    53    45   ar
    53    42    36    1
    54     8     1    1
    55    52    47   ar
    56    43    38    1
    57    33    27   ar
    58    15     9   ar
    59    20    21    1
@<TRIPOS>MOLECULE
*****
 53 59 0 0 0
SMALL
GASTEIGER

@<TRIPOS>ATOM
      1 C         140.2908  140.2565  161.7502 C.3     1  UNL1        0.0236
      2 C         140.9878  141.2132  160.8288 C.3     1  UNL1        0.0257
      3 C         140.3769  141.5570  159.5027 C.3     1  UNL1        0.0940
      4 N         139.0690  140.9441  159.0979 N.am    1  UNL1       -0.2760
      5 C         138.4581  141.2879  157.7718 C.2     1  UNL1        0.2499
      6 O         137.1502  140.6750  157.3671 O.2     1  UNL1       -0.2699
      7 C         138.3720  139.9874  160.0194 C.3     1  UNL1        0.0940
      8 C         138.9829  139.6436  161.3454 C.3     1  UNL1        0.0257
      9 C         139.1551  142.2446  156.8505 C.ar    1  UNL1        0.0656
     10 C         138.9881  143.7234  157.0385 C.ar    1  UNL1        0.0276
     11 C         139.6852  144.6800  156.1171 C.ar    1  UNL1        0.1494
     12 C         140.5493  144.1579  155.0077 C.ar    1  UNL1        0.1594
     13 F         141.2463  145.1145  154.0863 F       1  UNL1       -0.2027
     14 C         140.7163  142.6791  154.8197 C.ar    1  UNL1        0.0426
     15 C         140.0192  141.7225  155.7411 C.ar    1  UNL1        0.0643
     16 CL        140.1862  140.2437  155.5530 Cl      1  UNL1       -0.0820
     17 S         139.5182  146.1588  156.3051 S.O2    1  UNL1        0.0626
     18 O         140.5833  146.1448  157.3611 O.2     1  UNL1       -0.1529
     19 O         138.4530  146.1727  155.2491 O.2     1  UNL1       -0.1529
     20 N         139.3512  147.6376  156.4932 N.3     1  UNL1       -0.1706
     21 H         140.2406  147.9919  156.8451 H       1  UNL1        0.1491
     22 C         138.9703  148.5033  155.3290 C.3     1  UNL1        0.1944
     23 C         138.6009  149.9399  155.5518 C.3     1  UNL1        0.4134
     24 F         138.2314  151.3765  155.7747 F       1  UNL1       -0.1684
     25 F         138.2036  149.6190  156.9622 F       1  UNL1       -0.1684
     26 F         138.9981  150.2609  154.1414 F       1  UNL1       -0.1684
     27 C         140.0147  139.4106  162.9578 C.ar    1  UNL1       -0.0204
     28 C         140.8213  138.1704  163.2051 C.ar    1  UNL1       -0.0041
     29 C         140.5452  137.3245  164.4127 C.ar    1  UNL1        0.0020
     30 C         139.4625  137.7189  165.3730 C.ar    1  UNL1        0.0296
     31 C         138.6559  138.9592  165.1257 C.ar    1  UNL1        0.1398
     32 F         137.5732  139.3535  166.0859 F       1  UNL1       -0.2042
     33 C         138.9321  139.8050  163.9180 C.ar    1  UNL1        0.0254
     34 C         141.5028  140.5756  162.5743 C.3     1  UNL1        0.0215
     35 C         141.6847  141.9536  163.1383 C.3     1  UNL1        0.0723
     36 C         141.6623  142.0811  163.0495 C.3     1  UNL1        0.0893
     37 C         140.2955  142.1693  163.6614 C.3     1  UNL1        0.0386
     38 C         139.3635  143.2735  163.2590 C.3     1  UNL1        0.0594
     39 C         138.7984  144.4893  162.5861 C.3     1  UNL1        0.0174
     40 C         139.8384  145.0249  161.6473 C.3     1  UNL1        0.0174
     41 C         141.0463  144.1403  161.7398 C.3     1  UNL1        0.0594
     42 C         142.0968  143.0971  162.0353 C.3     1  UNL1        0.0386
     43 N         140.7527  143.0578  162.7360 N.3     1  UNL1       -0.2751
     44 C         143.6995  140.9799  161.2239 C.3     1  UNL1        0.0718
     45 C         143.6554  140.3604  162.5893 C.ar    1  UNL1        0.1207
     46 N         144.3457  139.2977  163.3919 N.ar    1  UNL1       -0.2309
     47 C         143.7113  139.2573  164.7505 C.ar    1  UNL1        0.0983
     48 C         143.9794  138.4097  165.9587 C.ar    1  UNL1        0.0206
     49 C         143.1650  138.5999  167.2039 C.ar    1  UNL1        0.0016
     50 C         142.0825  139.6376  167.2410 C.ar    1  UNL1        0.0016
     51 C         141.8145  140.4852  166.0328 C.ar    1  UNL1        0.0188
     52 C         142.6288  140.2951  164.7876 C.ar    1  UNL1        0.0785
     53 N         142.5943  140.9768  163.4519 N.ar    1  UNL1       -0.3167
@<TRIPOS>BOND
     1    44    45    1
     2    45    46   ar
     3    46    47   ar
     4    47    48   ar
     5    48    49   ar
     6    49    50   ar
     7    50    51   ar
     8    51    52   ar
     9    52    53   ar
    10    53    36    1
    11    36    37    1
    12    37    38    1
    13    38    39    1
    14    39    40    1
    15    40    41    1
    16    41    42    1
    17    41    43    1
    18    43    35    1
    19    35    34    1
    20    34     1    1
    21     1    27    1
    22    27    28   ar
    23    28    29   ar
    24    29    30   ar
    25    30    31   ar
    26    31    32    1
    27    31    33   ar
    28     1     2    1
    29     2     3    1
    30     3     4    1
    31     4     5   am
    32     5     6    2
    33     5     9    1
    34     9    10   ar
    35    10    11   ar
    36    11    17    1
    37    17    18    2
    38    17    19    2
    39    17    20    1
    40    20    22    1
    41    22    23    1
    42    23    24    1
    43    23    25    1
    44    23    26    1
    45    11    12   ar
    46    12    13    1
    47    12    14   ar
    48    14    15   ar
    49    15    16    1
    50     4     7    1
    51     7     8    1
    52    53    45   ar
    53    42    36    1
    54     8     1    1
    55    52    47   ar
    56    43    38    1
    57    33    27   ar
    58    15     9   ar
    59    20    21    1
@<TRIPOS>MOLECULE
*****
 53 59 0 0 0
SMALL
GASTEIGER

@<TRIPOS>ATOM
      1 C         141.4727  141.8881  164.9407 C.3     1  UNL1        0.0236
      2 C         141.3836  140.9999  163.7352 C.3     1  UNL1        0.0257
      3 C         141.3292  141.6019  162.3624 C.3     1  UNL1        0.0940
      4 N         141.3639  143.0921  162.1950 N.am    1  UNL1       -0.2760
      5 C         141.3095  143.6941  160.8221 C.2     1  UNL1        0.2499
      6 O         141.3443  145.1843  160.6547 O.2     1  UNL1       -0.2699
      7 C         141.4531  143.9803  163.4004 C.3     1  UNL1        0.0940
      8 C         141.5075  143.3784  164.7732 C.3     1  UNL1        0.0257
      9 C         141.2204  142.8058  159.6167 C.ar    1  UNL1        0.0656
     10 C         139.8829  142.3270  159.1351 C.ar    1  UNL1        0.0276
     11 C         139.7939  141.4386  157.9297 C.ar    1  UNL1        0.1494
     12 C         141.0423  141.0292  157.2059 C.ar    1  UNL1        0.1594
     13 F         140.9532  140.1409  156.0006 F       1  UNL1       -0.2027
     14 C         142.3798  141.5080  157.6876 C.ar    1  UNL1        0.0426
     15 C         142.4688  142.3963  158.8930 C.ar    1  UNL1        0.0643
     16 CL        143.8062  142.8751  159.3746 Cl      1  UNL1       -0.0820
     17 S         138.4565  140.9598  157.4481 S.O2    1  UNL1        0.0626
     18 O         138.3968  142.1022  156.4779 O.2     1  UNL1       -0.1529
     19 O         138.5161  139.8174  158.4183 O.2     1  UNL1       -0.1529
     20 N         137.1190  140.4810  156.9664 N.3     1  UNL1       -0.1706
     21 H         136.5539  140.3018  157.7965 H       1  UNL1        0.1491
     22 C         136.2946  141.3463  156.0600 C.3     1  UNL1        0.1944
     23 C         134.8811  140.9617  155.7373 C.3     1  UNL1        0.4134
     24 F         133.4676  140.5772  155.4147 F       1  UNL1       -0.1684
     25 F         134.7705  140.2598  157.0583 F       1  UNL1       -0.1684
     26 F         134.9917  141.6637  154.4163 F       1  UNL1       -0.1684
     27 C         141.5604  142.3097  166.3776 C.ar    1  UNL1       -0.0204
     28 C         140.3592  142.8898  167.0636 C.ar    1  UNL1       -0.0041
     29 C         140.4469  143.3115  168.5005 C.ar    1  UNL1        0.0020
     30 C         141.7357  143.1529  169.2513 C.ar    1  UNL1        0.0296
     31 C         142.9369  142.5727  168.5652 C.ar    1  UNL1        0.1398
     32 F         144.2257  142.4142  169.3160 F       1  UNL1       -0.2042
     33 C         142.8492  142.1512  167.1283 C.ar    1  UNL1        0.0254
     34 C         141.4684  140.5444  165.6071 C.3     1  UNL1        0.0215
     35 C         140.2607  139.6605  165.5053 C.3     1  UNL1        0.0723
     36 C         140.1998  139.6208  165.3662 C.3     1  UNL1        0.0893
     37 C         139.2090  140.7279  165.5738 C.3     1  UNL1        0.0386
     38 C         138.1634  141.0034  164.5342 C.3     1  UNL1        0.0594
     39 C         137.3359  140.9196  163.2859 C.3     1  UNL1        0.0174
     40 C         137.8762  139.8004  162.4459 C.3     1  UNL1        0.0174
     41 C         139.0376  139.1925  163.1750 C.3     1  UNL1        0.0594
     42 C         140.1448  138.7894  164.1189 C.3     1  UNL1        0.0386
     43 N         139.2151  139.9360  164.4657 N.3     1  UNL1       -0.2751
     44 C         142.8889  138.6203  164.6857 C.3     1  UNL1        0.0718
     45 C         142.6329  138.8372  166.1477 C.ar    1  UNL1        0.1207
     46 N         143.3321  138.7074  167.4684 N.ar    1  UNL1       -0.2309
     47 C         142.3767  139.1354  168.5427 C.ar    1  UNL1        0.0983
     48 C         142.5144  139.2170  170.0341 C.ar    1  UNL1        0.0206
     49 C         141.3625  139.6929  170.8688 C.ar    1  UNL1        0.0016
     50 C         140.0729  140.0872  170.2120 C.ar    1  UNL1        0.0016
     51 C         139.9351  140.0055  168.7206 C.ar    1  UNL1        0.0188
     52 C         141.0870  139.5297  167.8860 C.ar    1  UNL1        0.0785
     53 N         141.2454  139.3453  166.4058 N.ar    1  UNL1       -0.3167
@<TRIPOS>BOND
     1    44    45    1
     2    45    46   ar
     3    46    47   ar
     4    47    48   ar
     5    48    49   ar
     6    49    50   ar
     7    50    51   ar
     8    51    52   ar
     9    52    53   ar
    10    53    36    1
    11    36    37    1
    12    37    38    1
    13    38    39    1
    14    39    40    1
    15    40    41    1
    16    41    42    1
    17    41    43    1
    18    43    35    1
    19    35    34    1
    20    34     1    1
    21     1    27    1
    22    27    28   ar
    23    28    29   ar
    24    29    30   ar
    25    30    31   ar
    26    31    32    1
    27    31    33   ar
    28     1     2    1
    29     2     3    1
    30     3     4    1
    31     4     5   am
    32     5     6    2
    33     5     9    1
    34     9    10   ar
    35    10    11   ar
    36    11    17    1
    37    17    18    2
    38    17    19    2
    39    17    20    1
    40    20    22    1
    41    22    23    1
    42    23    24    1
    43    23    25    1
    44    23    26    1
    45    11    12   ar
    46    12    13    1
    47    12    14   ar
    48    14    15   ar
    49    15    16    1
    50     4     7    1
    51     7     8    1
    52    53    45   ar
    53    42    36    1
    54     8     1    1
    55    52    47   ar
    56    43    38    1
    57    33    27   ar
    58    15     9   ar
    59    20    21    1
@<TRIPOS>MOLECULE
*****
 53 59 0 0 0
SMALL
GASTEIGER

@<TRIPOS>ATOM
      1 C         141.1473  140.5862  159.8999 C.3     1  UNL1        0.0236
      2 C         140.9185  141.3744  161.1554 C.3     1  UNL1        0.0257
      3 C         141.7591  141.1117  162.3697 C.3     1  UNL1        0.0940
      4 N         142.8284  140.0606  162.3285 N.am    1  UNL1       -0.2760
      5 C         143.6690  139.7978  163.5427 C.2     1  UNL1        0.2499
      6 O         144.7384  138.7468  163.5015 O.2     1  UNL1       -0.2699
      7 C         143.0572  139.2723  161.0730 C.3     1  UNL1        0.0940
      8 C         142.2167  139.5350  159.8588 C.3     1  UNL1        0.0257
      9 C         143.4402  140.5862  164.7981 C.ar    1  UNL1        0.0656
     10 C         142.6242  140.0014  165.9127 C.ar    1  UNL1        0.0276
     11 C         142.3954  140.7899  167.1682 C.ar    1  UNL1        0.1494
     12 C         142.9826  142.1630  167.3090 C.ar    1  UNL1        0.1594
     13 F         142.7537  142.9513  168.5644 F       1  UNL1       -0.2027
     14 C         143.7985  142.7477  166.1944 C.ar    1  UNL1        0.0426
     15 C         144.0273  141.9593  164.9390 C.ar    1  UNL1        0.0643
     16 CL        144.8433  142.5440  163.8244 Cl      1  UNL1       -0.0820
     17 S         141.5795  140.2051  168.2828 S.O2    1  UNL1        0.0626
     18 O         140.3245  140.4817  167.5091 O.2     1  UNL1       -0.1529
     19 O         142.8345  139.9286  169.0564 O.2     1  UNL1       -0.1529
     20 N         140.7635  139.6204  169.3974 N.3     1  UNL1       -0.1706
     21 H         141.1888  138.7243  169.6350 H       1  UNL1        0.1491
     22 C         140.5991  140.3760  170.6827 C.3     1  UNL1        0.1944
     23 C         140.2326  141.8303  170.6561 C.3     1  UNL1        0.4134
     24 F         139.8661  143.2846  170.6295 F       1  UNL1       -0.1684
     25 F         138.8774  141.4790  170.1177 F       1  UNL1       -0.1684
     26 F         141.5879  142.1816  171.1945 F       1  UNL1       -0.1684
     27 C         140.9851  140.1048  158.4885 C.ar    1  UNL1       -0.0204
     28 C         141.4714  140.9487  157.3478 C.ar    1  UNL1       -0.0041
     29 C         141.3092  140.4673  155.9363 C.ar    1  UNL1        0.0020
     30 C         140.6609  139.1420  155.6658 C.ar    1  UNL1        0.0296
     31 C         140.1746  138.2981  156.8066 C.ar    1  UNL1        0.1398
     32 F         139.5263  136.9728  156.5360 F       1  UNL1       -0.2042
     33 C         140.3368  138.7795  158.2180 C.ar    1  UNL1        0.0254
     34 C         140.0216  141.4700  159.4510 C.3     1  UNL1        0.0215
     35 C         138.6426  141.2684  160.0058 C.3     1  UNL1        0.0723
     36 C         138.6193  141.2595  160.1608 C.3     1  UNL1        0.0893
     37 C         138.5945  139.7692  159.9913 C.3     1  UNL1        0.0386
     38 C         138.3878  138.8822  161.1831 C.3     1  UNL1        0.0594
     39 C         138.1631  138.4120  162.5897 C.3     1  UNL1        0.0174
     40 C         138.0723  139.6206  163.4735 C.3     1  UNL1        0.0174
     41 C         138.2409  140.8378  162.6131 C.3     1  UNL1        0.0594
     42 C         138.4373  141.8626  161.5220 C.3     1  UNL1        0.0386
     43 N         138.4359  140.3814  161.1975 N.3     1  UNL1       -0.2751
     44 C         137.3995  140.6992  157.5352 C.3     1  UNL1        0.0718
     45 C         138.2452  141.9362  157.6020 C.ar    1  UNL1        0.1207
     46 N         138.7101  143.0594  156.7231 N.ar    1  UNL1       -0.2309
     47 C         139.5782  143.9638  157.5468 C.ar    1  UNL1        0.0983
     48 C         140.3127  145.2281  157.2123 C.ar    1  UNL1        0.0206
     49 C         141.1188  145.9282  158.2658 C.ar    1  UNL1        0.0016
     50 C         141.1905  145.3641  159.6538 C.ar    1  UNL1        0.0016
     51 C         140.4560  144.0997  159.9883 C.ar    1  UNL1        0.0188
     52 C         139.6498  143.3996  158.9349 C.ar    1  UNL1        0.0785
     53 N         138.8260  142.1465  158.9690 N.ar    1  UNL1       -0.3167
@<TRIPOS>BOND
     1    44    45    1
     2    45    46   ar
     3    46    47   ar
     4    47    48   ar
     5    48    49   ar
     6    49    50   ar
     7    50    51   ar
     8    51    52   ar
     9    52    53   ar
    10    53    36    1
    11    36    37    1
    12    37    38    1
    13    38    39    1
    14    39    40    1
    15    40    41    1
    16    41    42    1
    17    41    43    1
    18    43    35    1
    19    35    34    1
    20    34     1    1
    21     1    27    1
    22    27    28   ar
    23    28    29   ar
    24    29    30   ar
    25    30    31   ar
    26    31    32    1
    27    31    33   ar
    28     1     2    1
    29     2     3    1
    30     3     4    1
    31     4     5   am
    32     5     6    2
    33     5     9    1
    34     9    10   ar
    35    10    11   ar
    36    11    17    1
    37    17    18    2
    38    17    19    2
    39    17    20    1
    40    20    22    1
    41    22    23    1
    42    23    24    1
    43    23    25    1
    44    23    26    1
    45    11    12   ar
    46    12    13    1
    47    12    14   ar
    48    14    15   ar
    49    15    16    1
    50     4     7    1
    51     7     8    1
    52    53    45   ar
    53    42    36    1
    54     8     1    1
    55    52    47   ar
    56    43    38    1
    57    33    27   ar
    58    15     9   ar
    59    20    21    1
@<TRIPOS>MOLECULE
*****
 53 59 0 0 0
SMALL
GASTEIGER

@<TRIPOS>ATOM
      1 C         140.8914  141.2822  161.0377 C.3     1  UNL1        0.0236
      2 C         140.3514  140.0409  160.3916 C.3     1  UNL1        0.0257
      3 C         141.1301  139.3618  159.3042 C.3     1  UNL1        0.0940
      4 N         142.4488  139.9241  158.8628 N.am    1  UNL1       -0.2760
      5 C         143.2275  139.2450  157.7753 C.2     1  UNL1        0.2499
      6 O         144.5462  139.8073  157.3340 O.2     1  UNL1       -0.2699
      7 C         142.9888  141.1655  159.5089 C.3     1  UNL1        0.0940
      8 C         142.2102  141.8445  160.5963 C.3     1  UNL1        0.0257
      9 C         142.6874  138.0037  157.1293 C.ar    1  UNL1        0.0656
     10 C         143.2975  136.6694  157.4415 C.ar    1  UNL1        0.0276
     11 C         142.7574  135.4281  156.7954 C.ar    1  UNL1        0.1494
     12 C         141.6071  135.5211  155.8371 C.ar    1  UNL1        0.1594
     13 F         141.0670  134.2798  155.1911 F       1  UNL1       -0.2027
     14 C         140.9970  136.8554  155.5250 C.ar    1  UNL1        0.0426
     15 C         141.5371  138.0967  156.1710 C.ar    1  UNL1        0.0643
     16 CL        140.9270  139.4309  155.8589 Cl      1  UNL1       -0.0820
     17 S         143.3675  134.0939  157.1076 S.O2    1  UNL1        0.0626
     18 O         143.2497  134.3833  158.5747 O.2     1  UNL1       -0.1529
     19 O         143.4853  133.8045  155.6405 O.2     1  UNL1       -0.1529
     20 N         143.9776  132.7595  157.4199 N.3     1  UNL1       -0.1706
     21 H         143.2078  132.1286  157.6427 H       1  UNL1        0.1491
     22 C         144.8248  132.0642  156.3958 C.3     1  UNL1        0.1944
     23 C         144.8318  130.5661  156.3202 C.3     1  UNL1        0.4134
     24 F         144.8388  129.0681  156.2446 F       1  UNL1       -0.1684
     25 F         144.9102  130.4910  157.8163 F       1  UNL1       -0.1684
     26 F         144.7534  130.6413  154.8241 F       1  UNL1       -0.1684
     27 C         140.9848  142.4718  161.9467 C.ar    1  UNL1       -0.0204
     28 C         140.8623  143.8569  161.3843 C.ar    1  UNL1       -0.0041
     29 C         140.9557  145.0465  162.2933 C.ar    1  UNL1        0.0020
     30 C         141.1715  144.8509  163.7647 C.ar    1  UNL1        0.0296
     31 C         141.2939  143.4657  164.3272 C.ar    1  UNL1        0.1398
     32 F         141.5097  143.2701  165.7986 F       1  UNL1       -0.2042
     33 C         141.2006  142.2762  163.4181 C.ar    1  UNL1        0.0254
     34 C         139.6052  141.1331  161.7947 C.3     1  UNL1        0.0215
     35 C         138.2956  141.3696  161.1025 C.3     1  UNL1        0.0723
     36 C         138.2657  141.3060  160.9621 C.3     1  UNL1        0.0893
     37 C         138.6504  142.6289  160.3688 C.3     1  UNL1        0.0386
     38 C         138.6124  142.8235  158.8819 C.3     1  UNL1        0.0594
     39 C         138.4322  142.5713  157.4143 C.3     1  UNL1        0.0174
     40 C         137.9661  141.1561  157.2410 C.3     1  UNL1        0.0174
     41 C         137.8581  140.5337  158.6015 C.3     1  UNL1        0.0594
     42 C         137.8430  140.1778  160.0686 C.3     1  UNL1        0.0386
     43 N         138.2576  141.5642  159.6157 N.3     1  UNL1       -0.2751
     44 C         137.6454  143.4738  162.8625 C.3     1  UNL1        0.0718
     45 C         138.0036  142.1559  163.4828 C.ar    1  UNL1        0.1207
     46 N         138.1629  141.5281  164.8358 N.ar    1  UNL1       -0.2309
     47 C         138.5615  140.0956  164.6381 C.ar    1  UNL1        0.0983
     48 C         138.8564  138.9925  165.6107 C.ar    1  UNL1        0.0206
     49 C         139.2384  137.6318  165.1082 C.ar    1  UNL1        0.0016
     50 C         139.3254  137.3742  163.6330 C.ar    1  UNL1        0.0016
     51 C         139.0304  138.4773  162.6604 C.ar    1  UNL1        0.0188
     52 C         138.6485  139.8380  163.1629 C.ar    1  UNL1        0.0785
     53 N         138.3037  141.1114  162.4490 N.ar    1  UNL1       -0.3167
@<TRIPOS>BOND
     1    44    45    1
     2    45    46   ar
     3    46    47   ar
     4    47    48   ar
     5    48    49   ar
     6    49    50   ar
     7    50    51   ar
     8    51    52   ar
     9    52    53   ar
    10    53    36    1
    11    36    37    1
    12    37    38    1
    13    38    39    1
    14    39    40    1
    15    40    41    1
    16    41    42    1
    17    41    43    1
    18    43    35    1
    19    35    34    1
    20    34     1    1
    21     1    27    1
    22    27    28   ar
    23    28    29   ar
    24    29    30   ar
    25    30    31   ar
    26    31    32    1
    27    31    33   ar
    28     1     2    1
    29     2     3    1
    30     3     4    1
    31     4     5   am
    32     5     6    2
    33     5     9    1
    34     9    10   ar
    35    10    11   ar
    36    11    17    1
    37    17    18    2
    38    17    19    2
    39    17    20    1
    40    20    22    1
    41    22    23    1
    42    23    24    1
    43    23    25    1
    44    23    26    1
    45    11    12   ar
    46    12    13    1
    47    12    14   ar
    48    14    15   ar
    49    15    16    1
    50     4     7    1
    51     7     8    1
    52    53    45   ar
    53    42    36    1
    54     8     1    1
    55    52    47   ar
    56    43    38    1
    57    33    27   ar
    58    15     9   ar
    59    20    21    1
@<TRIPOS>MOLECULE
*****
 53 59 0 0 0
SMALL
GASTEIGER

@<TRIPOS>ATOM
      1 C         142.2139  141.3303  160.6468 C.3     1  UNL1        0.0236
      2 C         141.0700  141.4445  161.6104 C.3     1  UNL1        0.0257
      3 C         141.0969  140.6797  162.9006 C.3     1  UNL1        0.0940
      4 N         142.2677  139.8007  163.2271 N.am    1  UNL1       -0.2760
      5 C         142.2946  139.0360  164.5173 C.2     1  UNL1        0.2499
      6 O         143.4654  138.1570  164.8439 O.2     1  UNL1       -0.2699
      7 C         143.4116  139.6865  162.2636 C.3     1  UNL1        0.0940
      8 C         143.3847  140.4512  160.9735 C.3     1  UNL1        0.0257
      9 C         141.1506  139.1503  165.4808 C.ar    1  UNL1        0.0656
     10 C         141.3030  139.9616  166.7332 C.ar    1  UNL1        0.0276
     11 C         140.1590  140.0758  167.6966 C.ar    1  UNL1        0.1494
     12 C         138.8626  139.3787  167.4077 C.ar    1  UNL1        0.1594
     13 F         137.7187  139.4930  168.3712 F       1  UNL1       -0.2027
     14 C         138.7103  138.5673  166.1553 C.ar    1  UNL1        0.0426
     15 C         139.8543  138.4531  165.1919 C.ar    1  UNL1        0.0643
     16 CL        139.7019  137.6418  163.9395 Cl      1  UNL1       -0.0820
     17 S         140.3114  140.8872  168.9490 S.O2    1  UNL1        0.0626
     18 O         140.1950  142.1487  168.1459 O.2     1  UNL1       -0.1529
     19 O         140.4278  139.6257  169.7521 O.2     1  UNL1       -0.1529
     20 N         140.4638  141.6987  170.2014 N.3     1  UNL1       -0.1706
     21 H         139.7688  141.3525  170.8629 H       1  UNL1        0.1491
     22 C         141.7773  141.7210  170.9254 C.3     1  UNL1        0.1944
     23 C         143.0253  142.1325  170.2022 C.3     1  UNL1        0.4134
     24 F         144.2734  142.5441  169.4790 F       1  UNL1       -0.1684
     25 F         142.5361  143.5500  170.1645 F       1  UNL1       -0.1684
     26 F         143.5145  140.7150  170.2398 F       1  UNL1       -0.1684
     27 C         143.0524  141.5475  159.4221 C.ar    1  UNL1       -0.0204
     28 C         142.5933  141.0190  158.0955 C.ar    1  UNL1       -0.0041
     29 C         143.4318  141.2362  156.8708 C.ar    1  UNL1        0.0020
     30 C         144.7294  141.9819  156.9729 C.ar    1  UNL1        0.0296
     31 C         145.1884  142.5104  158.2996 C.ar    1  UNL1        0.1398
     32 F         146.4859  143.2560  158.4015 F       1  UNL1       -0.2042
     33 C         144.3498  142.2931  159.5242 C.ar    1  UNL1        0.0254
     34 C         141.3344  142.2846  159.8950 C.3     1  UNL1        0.0215
     35 C         141.1498  143.6870  160.3946 C.3     1  UNL1        0.0723
     36 C         141.1102  143.7169  160.5435 C.3     1  UNL1        0.0893
     37 C         142.5697  143.9481  160.8017 C.3     1  UNL1        0.0386
     38 C         143.0380  144.3222  162.1767 C.3     1  UNL1        0.0594
     39 C         143.0462  144.6622  163.6377 C.3     1  UNL1        0.0174
     40 C         141.6314  144.6112  164.1334 C.3     1  UNL1        0.0174
     41 C         140.7488  144.2397  162.9789 C.3     1  UNL1        0.0594
     42 C         140.1192  143.8598  161.6603 C.3     1  UNL1        0.0386
     43 N         141.6181  144.0610  161.7695 N.3     1  UNL1       -0.2751
     44 C         142.2360  144.9250  158.1004 C.3     1  UNL1        0.0718
     45 C         141.1581  143.9060  157.8776 C.ar    1  UNL1        0.1207
     46 N         140.4104  143.2511  156.7542 N.ar    1  UNL1       -0.2309
     47 C         139.4320  142.2831  157.3508 C.ar    1  UNL1        0.0983
     48 C         138.4293  141.3575  156.7281 C.ar    1  UNL1        0.0206
     49 C         137.5697  140.4885  157.5976 C.ar    1  UNL1        0.0016
     50 C         137.7128  140.5452  159.0896 C.ar    1  UNL1        0.0016
     51 C         138.7155  141.4708  159.7123 C.ar    1  UNL1        0.0188
     52 C         139.5751  142.3398  158.8429 C.ar    1  UNL1        0.0785
     53 N         140.6419  143.3428  159.1684 N.ar    1  UNL1       -0.3167
@<TRIPOS>BOND
     1    44    45    1
     2    45    46   ar
     3    46    47   ar
     4    47    48   ar
     5    48    49   ar
     6    49    50   ar
     7    50    51   ar
     8    51    52   ar
     9    52    53   ar
    10    53    36    1
    11    36    37    1
    12    37    38    1
    13    38    39    1
    14    39    40    1
    15    40    41    1
    16    41    42    1
    17    41    43    1
    18    43    35    1
    19    35    34    1
    20    34     1    1
    21     1    27    1
    22    27    28   ar
    23    28    29   ar
    24    29    30   ar
    25    30    31   ar
    26    31    32    1
    27    31    33   ar
    28     1     2    1
    29     2     3    1
    30     3     4    1
    31     4     5   am
    32     5     6    2
    33     5     9    1
    34     9    10   ar
    35    10    11   ar
    36    11    17    1
    37    17    18    2
    38    17    19    2
    39    17    20    1
    40    20    22    1
    41    22    23    1
    42    23    24    1
    43    23    25    1
    44    23    26    1
    45    11    12   ar
    46    12    13    1
    47    12    14   ar
    48    14    15   ar
    49    15    16    1
    50     4     7    1
    51     7     8    1
    52    53    45   ar
    53    42    36    1
    54     8     1    1
    55    52    47   ar
    56    43    38    1
    57    33    27   ar
    58    15     9   ar
    59    20    21    1
