@<TRIPOS>MOLECULE
*****
 37 40 0 0 0
SMALL
GASTEIGER

@<TRIPOS>ATOM
      1 N         140.6900  140.2190  164.1778 N.ar    1  UNL1       -0.1967
      2 N         140.9300  141.4366  165.0204 N.ar    1  UNL1       -0.1666
      3 C         140.1345  141.2902  166.2836 C.ar    1  UNL1        0.0850
      4 C         139.4029  139.9822  166.2218 C.ar    1  UNL1        0.0334
      5 C         138.4684  139.3085  167.1824 C.ar    1  UNL1        0.0027
      6 C         137.8773  137.9728  166.8416 C.ar    1  UNL1        0.0001
      7 C         138.2206  137.3107  165.5402 C.ar    1  UNL1        0.0015
      8 C         139.1551  137.9843  164.5795 C.ar    1  UNL1        0.0193
      9 C         139.7462  139.3201  164.9203 C.ar    1  UNL1        0.0870
     10 C         142.4861  139.4054  160.1327 C.ar    1  UNL1        0.1194
     11 C         143.2062  138.9700  161.3744 C.ar    1  UNL1        0.1452
     12 N         144.5250  138.2633  161.2678 N.pl3   1  UNL1       -0.3415
     13 N         142.6075  139.2412  162.7228 N.ar    1  UNL1       -0.1940
     14 C         141.2887  139.9478  162.8295 C.ar    1  UNL1        0.2554
     15 N         140.5686  140.3832  161.5877 N.ar    1  UNL1       -0.1940
     16 C         141.1673  140.1121  160.2394 C.ar    1  UNL1        0.1452
     17 N         140.4471  140.5475  158.9978 N.pl3   1  UNL1       -0.3415
     18 H         144.9179  138.0853  160.3828 H       1  UNL1        0.1438
     19 H         144.9976  137.9775  162.0827 H       1  UNL1        0.1438
     20 H         139.5815  141.0113  159.0678 H       1  UNL1        0.1438
     21 H         140.8400  140.3696  158.1128 H       1  UNL1        0.1438
     22 C         144.0160  140.1324  158.1629 C.2     1  UNL1        0.4090
     23 O         144.3485  141.4018  158.8896 O.2     1  UNL1       -0.2258
     24 N         143.0848  139.1342  158.7844 N.am    1  UNL1       -0.2181
     25 C         142.7522  137.8649  158.0577 C.3     1  UNL1        0.1237
     26 C         145.3669  140.9425  156.0967 C.3     1  UNL1        0.2574
     27 O         144.6148  139.8613  156.8145 O.3     1  UNL1       -0.4302
     28 C         140.0802  142.2784  167.4108 C.3     1  UNL1        0.0785
     29 C         140.8856  142.0429  168.6542 C.ar    1  UNL1        0.0410
     30 C         140.2148  141.5413  169.8985 C.ar    1  UNL1        0.1388
     31 F         138.7385  141.2753  169.8994 F       1  UNL1       -0.2044
     32 C         141.0201  141.3058  171.1419 C.ar    1  UNL1        0.0318
     33 C         142.4963  141.5719  171.1409 C.ar    1  UNL1        0.0342
     34 C         143.1671  142.0734  169.8965 C.ar    1  UNL1        0.1672
     35 F         144.6433  142.3395  169.8955 F       1  UNL1       -0.2018
     36 C         142.3618  142.3090  168.6532 C.ar    1  UNL1        0.1659
     37 F         143.0327  142.8105  167.4088 F       1  UNL1       -0.2020
@<TRIPOS>BOND
     1    26    27    1
     2    27    22    1
     3    22    23    2
     4    22    24   am
     5    24    25    1
     6    24    10    1
     7    10    11   ar
     8    11    12    1
     9    11    13   ar
    10    13    14   ar
    11    14     1    1
    12     1     2   ar
    13     2     3   ar
    14     3    28    1
    15    28    29    1
    16    29    30   ar
    17    30    31    1
    18    30    32   ar
    19    32    33   ar
    20    33    34   ar
    21    34    35    1
    22    34    36   ar
    23    36    37    1
    24     3     4   ar
    25     4     5   ar
    26     5     6   ar
    27     6     7   ar
    28     7     8   ar
    29     8     9   ar
    30    14    15   ar
    31    15    16   ar
    32    16    17    1
    33    16    10   ar
    34     9     1   ar
    35    36    29   ar
    36     9     4   ar
    37    12    18    1
    38    12    19    1
    39    17    20    1
    40    17    21    1
@<TRIPOS>MOLECULE
*****
 37 40 0 0 0
SMALL
GASTEIGER

@<TRIPOS>ATOM
      1 N         141.2050  143.8425  162.0295 N.ar    1  UNL1       -0.1967
      2 N         142.4849  143.4039  162.6772 N.ar    1  UNL1       -0.1666
      3 C         142.2275  143.2363  164.1455 C.ar    1  UNL1        0.0850
      4 C         140.7887  143.5714  164.4051 C.ar    1  UNL1        0.0334
      5 C         139.9723  143.5838  165.6634 C.ar    1  UNL1        0.0027
      6 C         138.5240  143.9709  165.6139 C.ar    1  UNL1        0.0001
      7 C         137.8920  144.3455  164.3062 C.ar    1  UNL1        0.0015
      8 C         138.7084  144.3331  163.0479 C.ar    1  UNL1        0.0193
      9 C         140.1567  143.9461  163.0974 C.ar    1  UNL1        0.0870
     10 C         140.6141  144.6978  157.6512 C.ar    1  UNL1        0.1194
     11 C         139.7031  143.7380  158.3575 C.ar    1  UNL1        0.1452
     12 N         138.5952  143.0633  157.6044 N.pl3   1  UNL1       -0.3415
     13 N         139.9001  143.4529  159.8169 N.ar    1  UNL1       -0.1940
     14 C         141.0080  144.1276  160.5701 C.ar    1  UNL1        0.2554
     15 N         141.9191  145.0874  159.8637 N.ar    1  UNL1       -0.1940
     16 C         141.7221  145.3725  158.4043 C.ar    1  UNL1        0.1452
     17 N         142.6331  146.3323  157.6980 N.pl3   1  UNL1       -0.3415
     18 H         138.4659  143.2504  156.6465 H       1  UNL1        0.1438
     19 H         137.9973  142.4333  158.0680 H       1  UNL1        0.1438
     20 H         143.3603  146.7751  158.1923 H       1  UNL1        0.1438
     21 H         142.5038  146.5194  156.7401 H       1  UNL1        0.1438
     22 C         139.7276  146.2431  155.7602 C.2     1  UNL1        0.4090
     23 O         139.2351  147.2183  156.7880 O.2     1  UNL1       -0.2258
     24 N         140.4171  144.9828  156.1917 N.am    1  UNL1       -0.2181
     25 C         140.9096  144.0076  155.1639 C.3     1  UNL1        0.1237
     26 C         140.3773  147.5606  153.6172 C.3     1  UNL1        0.2574
     27 O         139.5306  146.5283  154.3007 O.3     1  UNL1       -0.4302
     28 C         143.2326  142.8088  165.1736 C.3     1  UNL1        0.0785
     29 C         143.2638  141.3851  165.6453 C.ar    1  UNL1        0.0410
     30 C         143.8851  140.3239  164.7863 C.ar    1  UNL1        0.1388
     31 F         144.4752  140.6863  163.4557 F       1  UNL1       -0.2044
     32 C         143.9164  138.9003  165.2579 C.ar    1  UNL1        0.0318
     33 C         143.3263  138.5380  166.5885 C.ar    1  UNL1        0.0342
     34 C         142.7050  139.5992  167.4474 C.ar    1  UNL1        0.1672
     35 F         142.1149  139.2368  168.7780 F       1  UNL1       -0.2018
     36 C         142.6737  141.0227  166.9759 C.ar    1  UNL1        0.1659
     37 F         142.0524  142.0839  167.8348 F       1  UNL1       -0.2020
@<TRIPOS>BOND
     1    26    27    1
     2    27    22    1
     3    22    23    2
     4    22    24   am
     5    24    25    1
     6    24    10    1
     7    10    11   ar
     8    11    12    1
     9    11    13   ar
    10    13    14   ar
    11    14     1    1
    12     1     2   ar
    13     2     3   ar
    14     3    28    1
    15    28    29    1
    16    29    30   ar
    17    30    31    1
    18    30    32   ar
    19    32    33   ar
    20    33    34   ar
    21    34    35    1
    22    34    36   ar
    23    36    37    1
    24     3     4   ar
    25     4     5   ar
    26     5     6   ar
    27     6     7   ar
    28     7     8   ar
    29     8     9   ar
    30    14    15   ar
    31    15    16   ar
    32    16    17    1
    33    16    10   ar
    34     9     1   ar
    35    36    29   ar
    36     9     4   ar
    37    12    18    1
    38    12    19    1
    39    17    20    1
    40    17    21    1
@<TRIPOS>MOLECULE
*****
 37 40 0 0 0
SMALL
GASTEIGER

@<TRIPOS>ATOM
      1 N         141.1969  143.8451  162.0099 N.ar    1  UNL1       -0.1967
      2 N         142.4768  143.4123  162.6614 N.ar    1  UNL1       -0.1666
      3 C         142.2138  143.2353  164.1275 C.ar    1  UNL1        0.0850
      4 C         140.7714  143.5587  164.3821 C.ar    1  UNL1        0.0334
      5 C         139.9491  143.5587  165.6366 C.ar    1  UNL1        0.0027
      6 C         138.4982  143.9355  165.5823 C.ar    1  UNL1        0.0001
      7 C         137.8697  144.3124  164.2735 C.ar    1  UNL1        0.0015
      8 C         138.6920  144.3124  163.0190 C.ar    1  UNL1        0.0193
      9 C         140.1429  143.9356  163.0734 C.ar    1  UNL1        0.0870
     10 C         140.6201  144.7187  157.6333 C.ar    1  UNL1        0.1194
     11 C         141.7269  145.3886  158.3923 C.ar    1  UNL1        0.1452
     12 N         142.6415  146.3497  157.6925 N.pl3   1  UNL1       -0.3415
     13 N         141.9192  145.0974  159.8512 N.ar    1  UNL1       -0.1940
     14 C         141.0046  144.1363  160.5511 C.ar    1  UNL1        0.2554
     15 N         139.8977  143.4664  159.7920 N.ar    1  UNL1       -0.1940
     16 C         139.7055  143.7576  158.3331 C.ar    1  UNL1        0.1452
     17 N         138.5987  143.0876  157.5742 N.pl3   1  UNL1       -0.3415
     18 H         142.5154  146.5408  156.7350 H       1  UNL1        0.1438
     19 H         143.3680  146.7894  158.1907 H       1  UNL1        0.1438
     20 H         137.9984  142.4568  158.0336 H       1  UNL1        0.1438
     21 H         138.4725  143.2787  156.6167 H       1  UNL1        0.1438
     22 C         139.7358  146.2698  155.7461 C.2     1  UNL1        0.4090
     23 O         139.2359  147.2385  156.7765 O.2     1  UNL1       -0.2258
     24 N         140.4279  145.0099  156.1745 N.am    1  UNL1       -0.2181
     25 C         140.9277  144.0412  155.1441 C.3     1  UNL1        0.1237
     26 C         140.2049  147.7563  153.6675 C.3     1  UNL1        0.2574
     27 O         139.5435  146.5611  154.2872 O.3     1  UNL1       -0.4302
     28 C         143.2171  142.8097  165.1582 C.3     1  UNL1        0.0785
     29 C         143.2503  141.3859  165.6295 C.ar    1  UNL1        0.0410
     30 C         143.8855  140.3282  164.7765 C.ar    1  UNL1        0.1388
     31 F         144.4876  140.6941  163.4522 F       1  UNL1       -0.2044
     32 C         143.9187  138.9045  165.2477 C.ar    1  UNL1        0.0318
     33 C         143.3167  138.5387  166.5720 C.ar    1  UNL1        0.0342
     34 C         142.6815  139.5965  167.4250 C.ar    1  UNL1        0.1672
     35 F         142.0794  139.2306  168.7493 F       1  UNL1       -0.2018
     36 C         142.6483  141.0201  166.9538 C.ar    1  UNL1        0.1659
     37 F         142.0131  142.0779  167.8067 F       1  UNL1       -0.2020
@<TRIPOS>BOND
     1    26    27    1
     2    27    22    1
     3    22    23    2
     4    22    24   am
     5    24    25    1
     6    24    10    1
     7    10    11   ar
     8    11    12    1
     9    11    13   ar
    10    13    14   ar
    11    14     1    1
    12     1     2   ar
    13     2     3   ar
    14     3    28    1
    15    28    29    1
    16    29    30   ar
    17    30    31    1
    18    30    32   ar
    19    32    33   ar
    20    33    34   ar
    21    34    35    1
    22    34    36   ar
    23    36    37    1
    24     3     4   ar
    25     4     5   ar
    26     5     6   ar
    27     6     7   ar
    28     7     8   ar
    29     8     9   ar
    30    14    15   ar
    31    15    16   ar
    32    16    17    1
    33    16    10   ar
    34     9     1   ar
    35    36    29   ar
    36     9     4   ar
    37    12    18    1
    38    12    19    1
    39    17    20    1
    40    17    21    1
@<TRIPOS>MOLECULE
*****
 37 40 0 0 0
SMALL
GASTEIGER

@<TRIPOS>ATOM
      1 N         141.0571  143.7846  161.8512 N.ar    1  UNL1       -0.1967
      2 N         139.9560  143.7739  162.8698 N.ar    1  UNL1       -0.1666
      3 C         140.5496  143.3796  164.1897 C.ar    1  UNL1        0.0850
      4 C         142.0174  143.1466  163.9868 C.ar    1  UNL1        0.0334
      5 C         143.1089  142.7388  164.9314 C.ar    1  UNL1        0.0027
      6 C         144.5140  142.5813  164.4307 C.ar    1  UNL1        0.0001
      7 C         144.8277  142.8316  162.9854 C.ar    1  UNL1        0.0015
      8 C         143.7362  143.2394  162.0408 C.ar    1  UNL1        0.0193
      9 C         142.3311  143.3968  162.5415 C.ar    1  UNL1        0.0870
     10 C         140.6156  144.8012  157.4897 C.ar    1  UNL1        0.1194
     11 C         141.7056  145.4363  158.3013 C.ar    1  UNL1        0.1452
     12 N         142.6484  146.4102  157.6591 N.pl3   1  UNL1       -0.3415
     13 N         141.8527  145.0974  159.7551 N.ar    1  UNL1       -0.1940
     14 C         140.9099  144.1235  160.3974 C.ar    1  UNL1        0.2554
     15 N         139.8199  143.4884  159.5858 N.ar    1  UNL1       -0.1940
     16 C         139.6728  143.8272  158.1320 C.ar    1  UNL1        0.1452
     17 N         138.5828  143.1921  157.3205 N.pl3   1  UNL1       -0.3415
     18 H         142.5518  146.6327  156.7049 H       1  UNL1        0.1438
     19 H         143.3638  146.8271  158.1917 H       1  UNL1        0.1438
     20 H         137.9640  142.5529  157.7420 H       1  UNL1        0.1438
     21 H         138.4862  143.4145  156.3663 H       1  UNL1        0.1438
     22 C         139.7501  146.3916  155.6266 C.2     1  UNL1        0.4090
     23 O         139.1788  147.3042  156.6710 O.2     1  UNL1       -0.2258
     24 N         140.4685  145.1401  156.0359 N.am    1  UNL1       -0.2181
     25 C         141.0398  144.2275  154.9915 C.3     1  UNL1        0.1237
     26 C         140.4956  147.7621  153.5490 C.3     1  UNL1        0.2574
     27 O         139.6029  146.7306  154.1728 O.3     1  UNL1       -0.4302
     28 C         139.8059  143.2424  165.4851 C.3     1  UNL1        0.0785
     29 C         139.4729  141.8804  166.0182 C.ar    1  UNL1        0.0410
     30 C         138.5211  140.9944  165.2704 C.ar    1  UNL1        0.1388
     31 F         137.9023  141.4706  163.9896 F       1  UNL1       -0.2044
     32 C         138.1880  139.6325  165.8033 C.ar    1  UNL1        0.0318
     33 C         138.8068  139.1564  167.0841 C.ar    1  UNL1        0.0342
     34 C         139.7587  140.0423  167.8319 C.ar    1  UNL1        0.1672
     35 F         140.3775  139.5663  169.1127 F       1  UNL1       -0.2018
     36 C         140.0917  141.4043  167.2990 C.ar    1  UNL1        0.1659
     37 F         141.0435  142.2902  168.0468 F       1  UNL1       -0.2020
@<TRIPOS>BOND
     1    26    27    1
     2    27    22    1
     3    22    23    2
     4    22    24   am
     5    24    25    1
     6    24    10    1
     7    10    11   ar
     8    11    12    1
     9    11    13   ar
    10    13    14   ar
    11    14     1    1
    12     1     2   ar
    13     2     3   ar
    14     3    28    1
    15    28    29    1
    16    29    30   ar
    17    30    31    1
    18    30    32   ar
    19    32    33   ar
    20    33    34   ar
    21    34    35    1
    22    34    36   ar
    23    36    37    1
    24     3     4   ar
    25     4     5   ar
    26     5     6   ar
    27     6     7   ar
    28     7     8   ar
    29     8     9   ar
    30    14    15   ar
    31    15    16   ar
    32    16    17    1
    33    16    10   ar
    34     9     1   ar
    35    36    29   ar
    36     9     4   ar
    37    12    18    1
    38    12    19    1
    39    17    20    1
    40    17    21    1
@<TRIPOS>MOLECULE
*****
 37 40 0 0 0
SMALL
GASTEIGER

@<TRIPOS>ATOM
      1 N         142.0604  142.6124  162.9376 N.ar    1  UNL1       -0.1967
      2 N         142.7596  142.1174  164.1689 N.ar    1  UNL1       -0.1666
      3 C         141.9453  142.5267  165.3603 C.ar    1  UNL1        0.0850
      4 C         140.7429  143.2746  164.8653 C.ar    1  UNL1        0.0334
      5 C         139.5925  143.9142  165.5846 C.ar    1  UNL1        0.0027
      6 C         138.5133  144.6068  164.8065 C.ar    1  UNL1        0.0001
      7 C         138.5845  144.6598  163.3091 C.ar    1  UNL1        0.0015
      8 C         139.7349  144.0202  162.5898 C.ar    1  UNL1        0.0193
      9 C         140.8141  143.3276  163.3679 C.ar    1  UNL1        0.0870
     10 C         143.4569  142.0506  158.6967 C.ar    1  UNL1        0.1194
     11 C         142.9821  143.3966  159.1579 C.ar    1  UNL1        0.1452
     12 N         142.9727  144.5554  158.2055 N.pl3   1  UNL1       -0.3415
     13 N         142.5166  143.5839  160.5715 N.ar    1  UNL1       -0.1940
     14 C         142.5259  142.4252  161.5240 C.ar    1  UNL1        0.2554
     15 N         143.0008  141.0791  161.0628 N.ar    1  UNL1       -0.1940
     16 C         143.4663  140.8918  159.6492 C.ar    1  UNL1        0.1452
     17 N         143.9412  139.5457  159.1881 N.pl3   1  UNL1       -0.3415
     18 H         143.2782  144.4324  157.2777 H       1  UNL1        0.1438
     19 H         142.6611  145.4388  158.5081 H       1  UNL1        0.1438
     20 H         143.9473  138.7852  159.8133 H       1  UNL1        0.1438
     21 H         144.2467  139.4228  158.2603 H       1  UNL1        0.1438
     22 C         145.3288  142.2207  156.9032 C.2     1  UNL1        0.4090
     23 O         146.2696  142.7653  157.9367 O.2     1  UNL1       -0.2258
     24 N         143.9224  141.8633  157.2831 N.am    1  UNL1       -0.2181
     25 C         142.9816  141.3187  156.2496 C.3     1  UNL1        0.1237
     26 C         147.1770  141.5195  155.2170 C.3     1  UNL1        0.2574
     27 O         145.7944  142.0335  155.4895 O.3     1  UNL1       -0.4302
     28 C         142.2753  142.2386  166.7949 C.3     1  UNL1        0.0785
     29 C         141.2248  141.6807  167.7088 C.ar    1  UNL1        0.0410
     30 C         141.0565  142.2426  169.0894 C.ar    1  UNL1        0.1388
     31 F         141.9388  143.3623  169.5560 F       1  UNL1       -0.2044
     32 C         140.0060  141.6848  170.0033 C.ar    1  UNL1        0.0318
     33 C         139.1237  140.5650  169.5366 C.ar    1  UNL1        0.0342
     34 C         139.2920  140.0032  168.1560 C.ar    1  UNL1        0.1672
     35 F         138.4097  138.8834  167.6893 F       1  UNL1       -0.2018
     36 C         140.3425  140.5610  167.2421 C.ar    1  UNL1        0.1659
     37 F         140.5107  139.9991  165.8615 F       1  UNL1       -0.2020
@<TRIPOS>BOND
     1    26    27    1
     2    27    22    1
     3    22    23    2
     4    22    24   am
     5    24    25    1
     6    24    10    1
     7    10    11   ar
     8    11    12    1
     9    11    13   ar
    10    13    14   ar
    11    14     1    1
    12     1     2   ar
    13     2     3   ar
    14     3    28    1
    15    28    29    1
    16    29    30   ar
    17    30    31    1
    18    30    32   ar
    19    32    33   ar
    20    33    34   ar
    21    34    35    1
    22    34    36   ar
    23    36    37    1
    24     3     4   ar
    25     4     5   ar
    26     5     6   ar
    27     6     7   ar
    28     7     8   ar
    29     8     9   ar
    30    14    15   ar
    31    15    16   ar
    32    16    17    1
    33    16    10   ar
    34     9     1   ar
    35    36    29   ar
    36     9     4   ar
    37    12    18    1
    38    12    19    1
    39    17    20    1
    40    17    21    1
@<TRIPOS>MOLECULE
*****
 37 40 0 0 0
SMALL
GASTEIGER

@<TRIPOS>ATOM
      1 N         139.6978  138.8473  160.9458 N.ar    1  UNL1       -0.1967
      2 N         139.7455  137.9345  162.1352 N.ar    1  UNL1       -0.1666
      3 C         139.1263  138.6539  163.2966 C.ar    1  UNL1        0.0850
      4 C         138.6959  140.0113  162.8252 C.ar    1  UNL1        0.0334
      5 C         138.0281  141.1539  163.5311 C.ar    1  UNL1        0.0027
      6 C         137.7135  142.4160  162.7841 C.ar    1  UNL1        0.0001
      7 C         138.0667  142.5356  161.3312 C.ar    1  UNL1        0.0015
      8 C         138.7346  141.3930  160.6253 C.ar    1  UNL1        0.0193
      9 C         139.0492  140.1309  161.3723 C.ar    1  UNL1        0.0870
     10 C         141.2317  137.9014  156.8224 C.ar    1  UNL1        0.1194
     11 C         139.7866  137.6760  157.1550 C.ar    1  UNL1        0.1452
     12 N         138.8526  137.1353  156.1132 N.pl3   1  UNL1       -0.3415
     13 N         139.2753  137.9913  158.5295 N.ar    1  UNL1       -0.1940
     14 C         140.2091  138.5320  159.5714 C.ar    1  UNL1        0.2554
     15 N         141.6544  138.7574  159.2387 N.ar    1  UNL1       -0.1940
     16 C         142.1656  138.4421  157.8642 C.ar    1  UNL1        0.1452
     17 N         143.6108  138.6675  157.5317 N.pl3   1  UNL1       -0.3415
     18 H         139.1882  136.9283  155.2111 H       1  UNL1        0.1438
     19 H         137.9041  136.9874  156.3315 H       1  UNL1        0.1438
     20 H         144.2237  139.0223  158.2155 H       1  UNL1        0.1438
     21 H         143.9464  138.4605  156.6296 H       1  UNL1        0.1438
     22 C         142.1063  136.1759  155.0882 C.2     1  UNL1        0.4090
     23 O         141.9585  135.0811  156.1028 O.2     1  UNL1       -0.2258
     24 N         141.7430  137.5860  155.4479 N.am    1  UNL1       -0.2181
     25 C         141.8909  138.6808  154.4333 C.3     1  UNL1        0.1237
     26 C         141.8438  134.9383  152.8189 C.3     1  UNL1        0.2574
     27 O         142.6176  135.8605  153.7137 O.3     1  UNL1       -0.4302
     28 C         138.9656  138.1112  164.6858 C.3     1  UNL1        0.0785
     29 C         139.6018  138.8185  165.8456 C.ar    1  UNL1        0.0410
     30 C         141.0713  139.1186  165.8266 C.ar    1  UNL1        0.1388
     31 F         141.9047  138.7113  164.6477 F       1  UNL1       -0.2044
     32 C         141.7075  139.8258  166.9863 C.ar    1  UNL1        0.0318
     33 C         140.8741  140.2331  168.1651 C.ar    1  UNL1        0.0342
     34 C         139.4045  139.9330  168.1841 C.ar    1  UNL1        0.1672
     35 F         138.5711  140.3403  169.3629 F       1  UNL1       -0.2018
     36 C         138.7683  139.2258  167.0244 C.ar    1  UNL1        0.1659
     37 F         137.2988  138.9258  167.0434 F       1  UNL1       -0.2020
@<TRIPOS>BOND
     1    26    27    1
     2    27    22    1
     3    22    23    2
     4    22    24   am
     5    24    25    1
     6    24    10    1
     7    10    11   ar
     8    11    12    1
     9    11    13   ar
    10    13    14   ar
    11    14     1    1
    12     1     2   ar
    13     2     3   ar
    14     3    28    1
    15    28    29    1
    16    29    30   ar
    17    30    31    1
    18    30    32   ar
    19    32    33   ar
    20    33    34   ar
    21    34    35    1
    22    34    36   ar
    23    36    37    1
    24     3     4   ar
    25     4     5   ar
    26     5     6   ar
    27     6     7   ar
    28     7     8   ar
    29     8     9   ar
    30    14    15   ar
    31    15    16   ar
    32    16    17    1
    33    16    10   ar
    34     9     1   ar
    35    36    29   ar
    36     9     4   ar
    37    12    18    1
    38    12    19    1
    39    17    20    1
    40    17    21    1
@<TRIPOS>MOLECULE
*****
 37 40 0 0 0
SMALL
GASTEIGER

@<TRIPOS>ATOM
      1 N         141.0665  140.5268  163.8170 N.ar    1  UNL1       -0.1967
      2 N         141.3224  141.6845  164.7358 N.ar    1  UNL1       -0.1666
      3 C         140.5219  141.4697  165.9861 C.ar    1  UNL1        0.0850
      4 C         139.7713  140.1792  165.8399 C.ar    1  UNL1        0.0334
      5 C         138.8249  139.4595  166.7544 C.ar    1  UNL1        0.0027
      6 C         138.2150  138.1571  166.3282 C.ar    1  UNL1        0.0001
      7 C         138.5515  137.5744  164.9876 C.ar    1  UNL1        0.0015
      8 C         139.4980  138.2941  164.0732 C.ar    1  UNL1        0.0193
      9 C         140.1079  139.5965  164.4994 C.ar    1  UNL1        0.0870
     10 C         142.8597  139.9466  159.7307 C.ar    1  UNL1        0.1194
     11 C         143.4880  139.2923  160.9253 C.ar    1  UNL1        0.1452
     12 N         144.7141  138.4446  160.7578 N.pl3   1  UNL1       -0.3415
     13 N         142.8903  139.4858  162.2874 N.ar    1  UNL1       -0.1940
     14 C         141.6642  140.3334  162.4549 C.ar    1  UNL1        0.2554
     15 N         141.0358  140.9877  161.2602 N.ar    1  UNL1       -0.1940
     16 C         141.6336  140.7943  159.8981 C.ar    1  UNL1        0.1452
     17 N         141.0051  141.4486  158.7036 N.pl3   1  UNL1       -0.3415
     18 H         145.1064  138.3177  159.8638 H       1  UNL1        0.1438
     19 H         145.1265  138.0152  161.5418 H       1  UNL1        0.1438
     20 H         140.2004  142.0049  158.8136 H       1  UNL1        0.1438
     21 H         141.3974  141.3216  157.8096 H       1  UNL1        0.1438
     22 C         143.1094  138.5368  157.5628 C.2     1  UNL1        0.4090
     23 O         142.1638  137.5139  158.1190 O.2     1  UNL1       -0.2258
     24 N         143.4574  139.7531  158.3686 N.am    1  UNL1       -0.2181
     25 C         144.4030  140.7760  157.8123 C.3     1  UNL1        0.1237
     26 C         143.8504  136.9619  155.6337 C.3     1  UNL1        0.2574
     27 O         143.7071  138.3432  156.2006 O.3     1  UNL1       -0.4302
     28 C         140.4795  142.3847  167.1740 C.3     1  UNL1        0.0785
     29 C         141.2388  142.0330  168.4190 C.ar    1  UNL1        0.0410
     30 C         142.7232  142.2411  168.4762 C.ar    1  UNL1        0.1388
     31 F         143.4483  142.8009  167.2884 F       1  UNL1       -0.2044
     32 C         143.4824  141.8896  169.7211 C.ar    1  UNL1        0.0318
     33 C         142.7572  141.3299  170.9089 C.ar    1  UNL1        0.0342
     34 C         141.2728  141.1218  170.8517 C.ar    1  UNL1        0.1672
     35 F         140.5476  140.5620  172.0395 F       1  UNL1       -0.2018
     36 C         140.5136  141.4733  169.6068 C.ar    1  UNL1        0.1659
     37 F         139.0292  141.2652  169.5496 F       1  UNL1       -0.2020
@<TRIPOS>BOND
     1    26    27    1
     2    27    22    1
     3    22    23    2
     4    22    24   am
     5    24    25    1
     6    24    10    1
     7    10    11   ar
     8    11    12    1
     9    11    13   ar
    10    13    14   ar
    11    14     1    1
    12     1     2   ar
    13     2     3   ar
    14     3    28    1
    15    28    29    1
    16    29    30   ar
    17    30    31    1
    18    30    32   ar
    19    32    33   ar
    20    33    34   ar
    21    34    35    1
    22    34    36   ar
    23    36    37    1
    24     3     4   ar
    25     4     5   ar
    26     5     6   ar
    27     6     7   ar
    28     7     8   ar
    29     8     9   ar
    30    14    15   ar
    31    15    16   ar
    32    16    17    1
    33    16    10   ar
    34     9     1   ar
    35    36    29   ar
    36     9     4   ar
    37    12    18    1
    38    12    19    1
    39    17    20    1
    40    17    21    1
@<TRIPOS>MOLECULE
*****
 37 40 0 0 0
SMALL
GASTEIGER

@<TRIPOS>ATOM
      1 N         141.2248  143.8312  162.1635 N.ar    1  UNL1       -0.1967
      2 N         142.5142  143.4135  162.8061 N.ar    1  UNL1       -0.1666
      3 C         142.2708  143.2628  164.2785 C.ar    1  UNL1        0.0850
      4 C         140.8309  143.5873  164.5460 C.ar    1  UNL1        0.0334
      5 C         140.0250  143.6084  165.8108 C.ar    1  UNL1        0.0027
      6 C         138.5726  143.9807  165.7685 C.ar    1  UNL1        0.0001
      7 C         137.9261  144.3320  164.4614 C.ar    1  UNL1        0.0015
      8 C         138.7321  144.3110  163.1965 C.ar    1  UNL1        0.0193
      9 C         140.1845  143.9387  163.2388 C.ar    1  UNL1        0.0870
     10 C         140.5891  144.6231  157.7796 C.ar    1  UNL1        0.1194
     11 C         139.6897  143.6685  158.5074 C.ar    1  UNL1        0.1452
     12 N         138.5784  142.9779  157.7740 N.pl3   1  UNL1       -0.3415
     13 N         139.9016  143.4046  159.9688 N.ar    1  UNL1       -0.1940
     14 C         141.0129  144.0951  160.7022 C.ar    1  UNL1        0.2554
     15 N         141.9124  145.0498  159.9743 N.ar    1  UNL1       -0.1940
     16 C         141.7005  145.3137  158.5130 C.ar    1  UNL1        0.1452
     17 N         142.5999  146.2683  157.7852 N.pl3   1  UNL1       -0.3415
     18 H         138.4393  143.1511  156.8149 H       1  UNL1        0.1438
     19 H         137.9881  142.3513  158.2517 H       1  UNL1        0.1438
     20 H         143.3293  146.7216  158.2667 H       1  UNL1        0.1438
     21 H         142.4609  146.4416  156.8261 H       1  UNL1        0.1438
     22 C         139.7170  146.1585  155.8739 C.2     1  UNL1        0.4090
     23 O         139.2687  147.1660  156.8907 O.2     1  UNL1       -0.2258
     24 N         140.3772  144.8870  156.3182 N.am    1  UNL1       -0.2181
     25 C         140.8255  143.8795  155.3014 C.3     1  UNL1        0.1237
     26 C         140.4739  147.2836  153.6577 C.3     1  UNL1        0.2574
     27 O         139.5051  146.4225  154.4125 O.3     1  UNL1       -0.4302
     28 C         143.2885  142.8585  165.3036 C.3     1  UNL1        0.0785
     29 C         143.0895  141.6060  166.1047 C.ar    1  UNL1        0.0410
     30 C         142.7934  141.6936  167.5726 C.ar    1  UNL1        0.1388
     31 F         142.6963  143.0339  168.2393 F       1  UNL1       -0.2044
     32 C         142.5943  140.4413  168.3737 C.ar    1  UNL1        0.0318
     33 C         142.6914  139.1011  167.7069 C.ar    1  UNL1        0.0342
     34 C         142.9875  139.0134  166.2391 C.ar    1  UNL1        0.1672
     35 F         143.0846  137.6733  165.5723 F       1  UNL1       -0.2018
     36 C         143.1865  140.2658  165.4379 C.ar    1  UNL1        0.1659
     37 F         143.4826  140.1781  163.9701 F       1  UNL1       -0.2020
@<TRIPOS>BOND
     1    26    27    1
     2    27    22    1
     3    22    23    2
     4    22    24   am
     5    24    25    1
     6    24    10    1
     7    10    11   ar
     8    11    12    1
     9    11    13   ar
    10    13    14   ar
    11    14     1    1
    12     1     2   ar
    13     2     3   ar
    14     3    28    1
    15    28    29    1
    16    29    30   ar
    17    30    31    1
    18    30    32   ar
    19    32    33   ar
    20    33    34   ar
    21    34    35    1
    22    34    36   ar
    23    36    37    1
    24     3     4   ar
    25     4     5   ar
    26     5     6   ar
    27     6     7   ar
    28     7     8   ar
    29     8     9   ar
    30    14    15   ar
    31    15    16   ar
    32    16    17    1
    33    16    10   ar
    34     9     1   ar
    35    36    29   ar
    36     9     4   ar
    37    12    18    1
    38    12    19    1
    39    17    20    1
    40    17    21    1
@<TRIPOS>MOLECULE
*****
 37 40 0 0 0
SMALL
GASTEIGER

@<TRIPOS>ATOM
      1 N         140.5078  140.0475  163.6812 N.ar    1  UNL1       -0.1967
      2 N         140.8629  141.3127  164.4045 N.ar    1  UNL1       -0.1666
      3 C         140.2193  141.2686  165.7587 C.ar    1  UNL1        0.0850
      4 C         139.4664  139.9762  165.8723 C.ar    1  UNL1        0.0334
      5 C         138.6416  139.3891  166.9790 C.ar    1  UNL1        0.0027
      6 C         137.9950  138.0473  166.8017 C.ar    1  UNL1        0.0001
      7 C         138.1733  137.2926  165.5177 C.ar    1  UNL1        0.0015
      8 C         138.9981  137.8798  164.4110 C.ar    1  UNL1        0.0193
      9 C         139.6447  139.2215  164.5883 C.ar    1  UNL1        0.0870
     10 C         141.8040  138.9266  159.5202 C.ar    1  UNL1        0.1194
     11 C         140.8848  140.0930  159.7307 C.ar    1  UNL1        0.1452
     12 N         140.3977  140.8859  158.5543 N.pl3   1  UNL1       -0.3415
     13 N         140.4528  140.4667  161.1177 N.ar    1  UNL1       -0.1940
     14 C         140.9399  139.6739  162.2942 C.ar    1  UNL1        0.2554
     15 N         141.8591  138.5074  162.0837 N.ar    1  UNL1       -0.1940
     16 C         142.2912  138.1337  160.6967 C.ar    1  UNL1        0.1452
     17 N         143.2104  136.9673  160.4862 N.pl3   1  UNL1       -0.3415
     18 H         140.6812  140.6407  157.6440 H       1  UNL1        0.1438
     19 H         139.7943  141.6515  158.6925 H       1  UNL1        0.1438
     20 H         143.5301  136.4469  161.2584 H       1  UNL1        0.1438
     21 H         143.4940  136.7220  159.5759 H       1  UNL1        0.1438
     22 C         143.4945  139.1323  157.5582 C.2     1  UNL1        0.4090
     23 O         144.3209  140.0852  158.3700 O.2     1  UNL1       -0.2258
     24 N         142.2361  138.5529  158.1332 N.am    1  UNL1       -0.2181
     25 C         141.4098  137.6000  157.3214 C.3     1  UNL1        0.1237
     26 C         143.6472  139.6836  155.0238 C.3     1  UNL1        0.2574
     27 O         143.9267  138.7587  156.1711 O.3     1  UNL1       -0.4302
     28 C         140.3123  142.3305  166.8141 C.3     1  UNL1        0.0785
     29 C         141.2107  142.1335  167.9991 C.ar    1  UNL1        0.0410
     30 C         142.6865  142.3674  167.8686 C.ar    1  UNL1        0.1388
     31 F         143.2641  142.7983  166.5529 F       1  UNL1       -0.2044
     32 C         143.5849  142.1705  169.0535 C.ar    1  UNL1        0.0318
     33 C         143.0073  141.7397  170.3691 C.ar    1  UNL1        0.0342
     34 C         141.5314  141.5058  170.4997 C.ar    1  UNL1        0.1672
     35 F         140.9538  141.0749  171.8153 F       1  UNL1       -0.2018
     36 C         140.6331  141.7027  169.3147 C.ar    1  UNL1        0.1659
     37 F         139.1572  141.4688  169.4453 F       1  UNL1       -0.2020
@<TRIPOS>BOND
     1    26    27    1
     2    27    22    1
     3    22    23    2
     4    22    24   am
     5    24    25    1
     6    24    10    1
     7    10    11   ar
     8    11    12    1
     9    11    13   ar
    10    13    14   ar
    11    14     1    1
    12     1     2   ar
    13     2     3   ar
    14     3    28    1
    15    28    29    1
    16    29    30   ar
    17    30    31    1
    18    30    32   ar
    19    32    33   ar
    20    33    34   ar
    21    34    35    1
    22    34    36   ar
    23    36    37    1
    24     3     4   ar
    25     4     5   ar
    26     5     6   ar
    27     6     7   ar
    28     7     8   ar
    29     8     9   ar
    30    14    15   ar
    31    15    16   ar
    32    16    17    1
    33    16    10   ar
    34     9     1   ar
    35    36    29   ar
    36     9     4   ar
    37    12    18    1
    38    12    19    1
    39    17    20    1
    40    17    21    1
