@<TRIPOS>MOLECULE
*****
 21 22 0 0 0
SMALL
GASTEIGER

@<TRIPOS>ATOM
      1 C         139.9072  140.7953  167.6235 C.ar    1  UNL1        0.0262
      2 C         139.0379  139.6193  167.9571 C.ar    1  UNL1       -0.0042
      3 C         138.1246  139.0425  166.9163 C.ar    1  UNL1       -0.0219
      4 C         137.2552  137.8665  167.2500 C.3     1  UNL1        0.0310
      5 C         138.0807  139.6417  165.5419 C.ar    1  UNL1       -0.0011
      6 C         138.9500  140.8176  165.2083 C.ar    1  UNL1        0.0369
      7 C         139.8633  141.3944  166.2491 C.ar    1  UNL1        0.1425
      8 C         140.8205  141.3721  168.6642 C.3     1  UNL1        0.0799
      9 C         141.5686  140.4623  169.5929 C.3     1  UNL1        0.0221
     10 C         140.3415  143.6016  169.9092 C.3     1  UNL1        0.0861
     11 N         140.9856  142.8587  168.7764 N.3     1  UNL1       -0.2939
     12 H         141.9875  143.0399  168.8373 H       1  UNL1        0.1235
     13 O         140.7326  142.5705  165.9154 O.3     1  UNL1       -0.4537
     14 C         142.0839  142.3540  165.3013 C.ar    1  UNL1        0.1462
     15 C         142.8277  143.5089  164.6988 C.ar    1  UNL1        0.0384
     16 C         144.1790  143.2924  164.0847 C.ar    1  UNL1        0.0154
     17 C         144.7865  141.9210  164.0731 C.ar    1  UNL1        0.0684
     18 CL        146.1378  141.7045  163.4590 Cl      1  UNL1       -0.0814
     19 C         144.0428  140.7661  164.6756 C.ar    1  UNL1        0.0712
     20 CL        144.6504  139.3947  164.6641 Cl      1  UNL1       -0.0813
     21 C         142.6914  140.9826  165.2897 C.ar    1  UNL1        0.0497
@<TRIPOS>BOND
     1    10    11    1
     2    11     8    1
     3     8     9    1
     4     8     1    1
     5     1     2   ar
     6     2     3   ar
     7     3     4    1
     8     3     5   ar
     9     5     6   ar
    10     6     7   ar
    11     7    13    1
    12    13    14    1
    13    14    15   ar
    14    15    16   ar
    15    16    17   ar
    16    17    18    1
    17    17    19   ar
    18    19    20    1
    19    19    21   ar
    20     7     1   ar
    21    21    14   ar
    22    11    12    1
@<TRIPOS>MOLECULE
*****
 21 22 0 0 0
SMALL
GASTEIGER

@<TRIPOS>ATOM
      1 C         140.9265  140.6537  167.3420 C.ar    1  UNL1        0.0262
      2 C         142.0899  139.7319  167.5579 C.ar    1  UNL1       -0.0042
      3 C         142.6298  138.9250  166.4144 C.ar    1  UNL1       -0.0219
      4 C         143.7933  138.0032  166.6303 C.3     1  UNL1        0.0310
      5 C         142.0062  139.0399  165.0550 C.ar    1  UNL1       -0.0011
      6 C         140.8428  139.9617  164.8391 C.ar    1  UNL1        0.0369
      7 C         140.3030  140.7686  165.9826 C.ar    1  UNL1        0.1425
      8 C         140.3867  141.4605  168.4854 C.3     1  UNL1        0.0799
      9 C         139.7350  140.7717  169.6477 C.3     1  UNL1        0.0221
     10 C         140.4932  143.7249  169.7547 C.3     1  UNL1        0.0861
     11 N         140.4984  142.9562  168.4667 N.3     1  UNL1       -0.2939
     12 H         141.3740  143.1801  167.9937 H       1  UNL1        0.1235
     13 O         139.1395  141.6905  165.7666 O.3     1  UNL1       -0.4537
     14 C         139.2630  142.8441  164.8160 C.ar    1  UNL1        0.1462
     15 C         138.0960  143.2392  163.9604 C.ar    1  UNL1        0.0384
     16 C         138.2195  144.3929  163.0097 C.ar    1  UNL1        0.0154
     17 C         139.5101  145.1514  162.9146 C.ar    1  UNL1        0.0684
     18 CL        139.6336  146.3051  161.9640 Cl      1  UNL1       -0.0814
     19 C         140.6771  144.7564  163.7702 C.ar    1  UNL1        0.0712
     20 CL        141.9676  145.5150  163.6750 Cl      1  UNL1       -0.0813
     21 C         140.5535  143.6027  164.7209 C.ar    1  UNL1        0.0497
@<TRIPOS>BOND
     1    10    11    1
     2    11     8    1
     3     8     9    1
     4     8     1    1
     5     1     2   ar
     6     2     3   ar
     7     3     4    1
     8     3     5   ar
     9     5     6   ar
    10     6     7   ar
    11     7    13    1
    12    13    14    1
    13    14    15   ar
    14    15    16   ar
    15    16    17   ar
    16    17    18    1
    17    17    19   ar
    18    19    20    1
    19    19    21   ar
    20     7     1   ar
    21    21    14   ar
    22    11    12    1
@<TRIPOS>MOLECULE
*****
 21 22 0 0 0
SMALL
GASTEIGER

@<TRIPOS>ATOM
      1 C         139.9236  140.6412  167.5936 C.ar    1  UNL1        0.0262
      2 C         138.9084  139.6152  168.0020 C.ar    1  UNL1       -0.0042
      3 C         138.1438  138.8591  166.9562 C.ar    1  UNL1       -0.0219
      4 C         137.1285  137.8331  167.3646 C.3     1  UNL1        0.0310
      5 C         138.3943  139.1289  165.5021 C.ar    1  UNL1       -0.0011
      6 C         139.4095  140.1549  165.0938 C.ar    1  UNL1        0.0369
      7 C         140.1741  140.9110  166.1396 C.ar    1  UNL1        0.1425
      8 C         140.6882  141.3973  168.6394 C.3     1  UNL1        0.0799
      9 C         141.3879  140.6558  169.7396 C.3     1  UNL1        0.0221
     10 C         140.4609  143.7035  169.8140 C.3     1  UNL1        0.0861
     11 N         140.7531  142.8949  168.5849 N.3     1  UNL1       -0.2939
     12 H         141.6989  143.1381  168.2904 H       1  UNL1        0.1235
     13 O         141.1893  141.9370  165.7312 O.3     1  UNL1       -0.4537
     14 C         140.8131  143.0216  164.7658 C.ar    1  UNL1        0.1462
     15 C         139.6401  143.9105  165.0562 C.ar    1  UNL1        0.0384
     16 C         139.2638  144.9951  164.0909 C.ar    1  UNL1        0.0154
     17 C         140.0604  145.1909  162.8350 C.ar    1  UNL1        0.0684
     18 CL        139.6841  146.2755  161.8696 Cl      1  UNL1       -0.0814
     19 C         141.2333  144.3021  162.5446 C.ar    1  UNL1        0.0712
     20 CL        142.0298  144.4979  161.2887 Cl      1  UNL1       -0.0813
     21 C         141.6096  143.2174  163.5100 C.ar    1  UNL1        0.0497
@<TRIPOS>BOND
     1    10    11    1
     2    11     8    1
     3     8     9    1
     4     8     1    1
     5     1     2   ar
     6     2     3   ar
     7     3     4    1
     8     3     5   ar
     9     5     6   ar
    10     6     7   ar
    11     7    13    1
    12    13    14    1
    13    14    15   ar
    14    15    16   ar
    15    16    17   ar
    16    17    18    1
    17    17    19   ar
    18    19    20    1
    19    19    21   ar
    20     7     1   ar
    21    21    14   ar
    22    11    12    1
@<TRIPOS>MOLECULE
*****
 21 22 0 0 0
SMALL
GASTEIGER

@<TRIPOS>ATOM
      1 C         139.7484  138.3157  164.4751 C.ar    1  UNL1        0.0262
      2 C         138.5375  137.8838  165.2477 C.ar    1  UNL1       -0.0042
      3 C         138.2917  138.4289  166.6233 C.ar    1  UNL1       -0.0219
      4 C         137.0807  137.9969  167.3960 C.3     1  UNL1        0.0310
      5 C         139.2569  139.4061  167.2263 C.ar    1  UNL1       -0.0011
      6 C         140.4678  139.8380  166.4537 C.ar    1  UNL1        0.0369
      7 C         140.7136  139.2928  165.0781 C.ar    1  UNL1        0.1425
      8 C         139.9942  137.7705  163.0994 C.3     1  UNL1        0.0799
      9 C         138.9429  137.9096  162.0387 C.3     1  UNL1        0.0221
     10 C         142.1704  137.6125  161.6890 C.3     1  UNL1        0.0861
     11 N         141.2913  137.0862  162.7846 N.3     1  UNL1       -0.2939
     12 H         141.8468  137.1000  163.6400 H       1  UNL1        0.1235
     13 O         141.9246  139.7248  164.3054 O.3     1  UNL1       -0.4537
     14 C         142.2704  141.1810  164.2055 C.ar    1  UNL1        0.1462
     15 C         141.4946  142.0745  163.2835 C.ar    1  UNL1        0.0384
     16 C         141.8404  143.5306  163.1836 C.ar    1  UNL1        0.0154
     17 C         142.9619  144.0933  164.0055 C.ar    1  UNL1        0.0684
     18 CL        143.3077  145.5495  163.9056 Cl      1  UNL1       -0.0814
     19 C         143.7377  143.1999  164.9274 C.ar    1  UNL1        0.0712
     20 CL        144.8592  143.7626  165.7494 Cl      1  UNL1       -0.0813
     21 C         143.3919  141.7437  165.0274 C.ar    1  UNL1        0.0497
@<TRIPOS>BOND
     1    10    11    1
     2    11     8    1
     3     8     9    1
     4     8     1    1
     5     1     2   ar
     6     2     3   ar
     7     3     4    1
     8     3     5   ar
     9     5     6   ar
    10     6     7   ar
    11     7    13    1
    12    13    14    1
    13    14    15   ar
    14    15    16   ar
    15    16    17   ar
    16    17    18    1
    17    17    19   ar
    18    19    20    1
    19    19    21   ar
    20     7     1   ar
    21    21    14   ar
    22    11    12    1
@<TRIPOS>MOLECULE
*****
 21 22 0 0 0
SMALL
GASTEIGER

@<TRIPOS>ATOM
      1 C         140.3141  140.4052  166.7263 C.ar    1  UNL1        0.0262
      2 C         139.4861  139.9206  167.8793 C.ar    1  UNL1       -0.0042
      3 C         139.4251  140.7199  169.1471 C.ar    1  UNL1       -0.0219
      4 C         138.5970  140.2352  170.3002 C.3     1  UNL1        0.0310
      5 C         140.1921  142.0038  169.2620 C.ar    1  UNL1       -0.0011
      6 C         141.0201  142.4884  168.1090 C.ar    1  UNL1        0.0369
      7 C         141.0811  141.6891  166.8411 C.ar    1  UNL1        0.1425
      8 C         140.3752  139.6059  165.4585 C.3     1  UNL1        0.0799
      9 C         139.1190  139.0339  164.8713 C.3     1  UNL1        0.0221
     10 C         142.6435  138.3479  165.3099 C.3     1  UNL1        0.0861
     11 N         141.6924  139.3786  164.7778 N.3     1  UNL1       -0.2939
     12 H         141.4845  139.1178  163.8139 H       1  UNL1        0.1235
     13 O         141.9092  142.1738  165.6881 O.3     1  UNL1       -0.4537
     14 C         141.3585  143.2080  164.7516 C.ar    1  UNL1        0.1462
     15 C         142.2766  144.2104  164.1173 C.ar    1  UNL1        0.0384
     16 C         141.7258  145.2446  163.1808 C.ar    1  UNL1        0.0154
     17 C         140.2570  145.2764  162.8785 C.ar    1  UNL1        0.0684
     18 CL        139.7062  146.3105  161.9420 Cl      1  UNL1       -0.0814
     19 C         139.3388  144.2740  163.5127 C.ar    1  UNL1        0.0712
     20 CL        137.8699  144.3059  163.2104 Cl      1  UNL1       -0.0813
     21 C         139.8896  143.2398  164.4493 C.ar    1  UNL1        0.0497
@<TRIPOS>BOND
     1    10    11    1
     2    11     8    1
     3     8     9    1
     4     8     1    1
     5     1     2   ar
     6     2     3   ar
     7     3     4    1
     8     3     5   ar
     9     5     6   ar
    10     6     7   ar
    11     7    13    1
    12    13    14    1
    13    14    15   ar
    14    15    16   ar
    15    16    17   ar
    16    17    18    1
    17    17    19   ar
    18    19    20    1
    19    19    21   ar
    20     7     1   ar
    21    21    14   ar
    22    11    12    1
@<TRIPOS>MOLECULE
*****
 21 22 0 0 0
SMALL
GASTEIGER

@<TRIPOS>ATOM
      1 C         141.6831  139.4653  166.9470 C.ar    1  UNL1        0.0262
      2 C         142.5938  139.6087  168.1302 C.ar    1  UNL1       -0.0042
      3 C         142.0267  139.9518  169.4758 C.ar    1  UNL1       -0.0219
      4 C         142.9375  140.0951  170.6591 C.3     1  UNL1        0.0310
      5 C         140.5490  140.1516  169.6382 C.ar    1  UNL1       -0.0011
      6 C         139.6384  140.0083  168.4550 C.ar    1  UNL1        0.0369
      7 C         140.2054  139.6652  167.1093 C.ar    1  UNL1        0.1425
      8 C         142.2502  139.1222  165.6013 C.3     1  UNL1        0.0799
      9 C         143.4354  139.8745  165.0729 C.3     1  UNL1        0.0221
     10 C         141.5393  138.1642  163.2934 C.3     1  UNL1        0.0861
     11 N         141.6321  138.0267  164.7842 N.3     1  UNL1       -0.2939
     12 H         142.1719  137.1812  164.9688 H       1  UNL1        0.1235
     13 O         139.2947  139.5219  165.9260 O.3     1  UNL1       -0.4537
     14 C         138.8651  140.7370  165.1587 C.ar    1  UNL1        0.1462
     15 C         137.9252  140.5977  163.9980 C.ar    1  UNL1        0.0384
     16 C         137.4956  141.8128  163.2307 C.ar    1  UNL1        0.0154
     17 C         138.0059  143.1674  163.6241 C.ar    1  UNL1        0.0684
     18 CL        137.5763  144.3825  162.8568 Cl      1  UNL1       -0.0814
     19 C         138.9458  143.3068  164.7847 C.ar    1  UNL1        0.0712
     20 CL        139.4561  144.6614  165.1781 Cl      1  UNL1       -0.0813
     21 C         139.3754  142.0916  165.5521 C.ar    1  UNL1        0.0497
@<TRIPOS>BOND
     1    10    11    1
     2    11     8    1
     3     8     9    1
     4     8     1    1
     5     1     2   ar
     6     2     3   ar
     7     3     4    1
     8     3     5   ar
     9     5     6   ar
    10     6     7   ar
    11     7    13    1
    12    13    14    1
    13    14    15   ar
    14    15    16   ar
    15    16    17   ar
    16    17    18    1
    17    17    19   ar
    18    19    20    1
    19    19    21   ar
    20     7     1   ar
    21    21    14   ar
    22    11    12    1
@<TRIPOS>MOLECULE
*****
 21 22 0 0 0
SMALL
GASTEIGER

@<TRIPOS>ATOM
      1 C         139.3240  140.5406  166.6051 C.ar    1  UNL1        0.0262
      2 C         139.4188  139.9053  167.9606 C.ar    1  UNL1       -0.0042
      3 C         140.0863  140.6373  169.0870 C.ar    1  UNL1       -0.0219
      4 C         140.1811  140.0020  170.4425 C.3     1  UNL1        0.0310
      5 C         140.6590  142.0046  168.8578 C.ar    1  UNL1       -0.0011
      6 C         140.5642  142.6399  167.5023 C.ar    1  UNL1        0.0369
      7 C         139.8967  141.9078  166.3760 C.ar    1  UNL1        0.1425
      8 C         138.6565  139.8086  165.4788 C.3     1  UNL1        0.0799
      9 C         138.9299  138.3491  165.2665 C.3     1  UNL1        0.0221
     10 C         137.8179  140.3493  163.0800 C.3     1  UNL1        0.0861
     11 N         137.7155  140.5360  164.5649 N.3     1  UNL1       -0.2939
     12 H         136.7713  140.2578  164.8322 H       1  UNL1        0.1235
     13 O         139.8018  142.5432  165.0204 O.3     1  UNL1       -0.4537
     14 C         141.0188  142.6350  164.1484 C.ar    1  UNL1        0.1462
     15 C         141.4033  141.4792  163.2730 C.ar    1  UNL1        0.0384
     16 C         142.6203  141.5710  162.4010 C.ar    1  UNL1        0.0154
     17 C         143.4529  142.8187  162.4043 C.ar    1  UNL1        0.0684
     18 CL        144.6699  142.9106  161.5323 Cl      1  UNL1       -0.0814
     19 C         143.0685  143.9746  163.2797 C.ar    1  UNL1        0.0712
     20 CL        143.9011  145.2222  163.2830 Cl      1  UNL1       -0.0813
     21 C         141.8515  143.8827  164.1518 C.ar    1  UNL1        0.0497
@<TRIPOS>BOND
     1    10    11    1
     2    11     8    1
     3     8     9    1
     4     8     1    1
     5     1     2   ar
     6     2     3   ar
     7     3     4    1
     8     3     5   ar
     9     5     6   ar
    10     6     7   ar
    11     7    13    1
    12    13    14    1
    13    14    15   ar
    14    15    16   ar
    15    16    17   ar
    16    17    18    1
    17    17    19   ar
    18    19    20    1
    19    19    21   ar
    20     7     1   ar
    21    21    14   ar
    22    11    12    1
@<TRIPOS>MOLECULE
*****
 21 22 0 0 0
SMALL
GASTEIGER

@<TRIPOS>ATOM
      1 C         140.7282  139.4836  166.5285 C.ar    1  UNL1        0.0262
      2 C         139.6667  139.8397  167.5267 C.ar    1  UNL1       -0.0042
      3 C         140.0432  140.1376  168.9478 C.ar    1  UNL1       -0.0219
      4 C         138.9816  140.4937  169.9460 C.3     1  UNL1        0.0310
      5 C         141.4811  140.0794  169.3707 C.ar    1  UNL1       -0.0011
      6 C         142.5426  139.7233  168.3725 C.ar    1  UNL1        0.0369
      7 C         142.1661  139.4254  166.9514 C.ar    1  UNL1        0.1425
      8 C         140.3517  139.1857  165.1074 C.3     1  UNL1        0.0799
      9 C         140.1002  140.3099  164.1467 C.3     1  UNL1        0.0221
     10 C         141.1624  137.2280  163.6040 C.3     1  UNL1        0.0861
     11 N         140.2268  137.7637  164.6470 N.3     1  UNL1       -0.2939
     12 H         140.3389  137.1758  165.4729 H       1  UNL1        0.1235
     13 O         143.2277  139.0693  165.9532 O.3     1  UNL1       -0.4537
     14 C         143.6543  140.0718  164.9222 C.ar    1  UNL1        0.1462
     15 C         144.1133  139.6092  163.5711 C.ar    1  UNL1        0.0384
     16 C         144.5399  140.6117  162.5401 C.ar    1  UNL1        0.0154
     17 C         144.5077  142.0768  162.8602 C.ar    1  UNL1        0.0684
     18 CL        144.9343  143.0793  161.8293 Cl      1  UNL1       -0.0814
     19 C         144.0487  142.5394  164.2113 C.ar    1  UNL1        0.0712
     20 CL        144.0165  144.0045  164.5313 Cl      1  UNL1       -0.0813
     21 C         143.6221  141.5369  165.2423 C.ar    1  UNL1        0.0497
@<TRIPOS>BOND
     1    10    11    1
     2    11     8    1
     3     8     9    1
     4     8     1    1
     5     1     2   ar
     6     2     3   ar
     7     3     4    1
     8     3     5   ar
     9     5     6   ar
    10     6     7   ar
    11     7    13    1
    12    13    14    1
    13    14    15   ar
    14    15    16   ar
    15    16    17   ar
    16    17    18    1
    17    17    19   ar
    18    19    20    1
    19    19    21   ar
    20     7     1   ar
    21    21    14   ar
    22    11    12    1
@<TRIPOS>MOLECULE
*****
 21 22 0 0 0
SMALL
GASTEIGER

@<TRIPOS>ATOM
      1 C         140.5320  139.6087  165.5784 C.ar    1  UNL1        0.0262
      2 C         141.6631  138.6279  165.6706 C.ar    1  UNL1       -0.0042
      3 C         142.8679  138.9486  166.5048 C.ar    1  UNL1       -0.0219
      4 C         143.9990  137.9677  166.5969 C.3     1  UNL1        0.0310
      5 C         142.9415  140.2501  167.2467 C.ar    1  UNL1       -0.0011
      6 C         141.8104  141.2310  167.1545 C.ar    1  UNL1        0.0369
      7 C         140.6056  140.9102  166.3204 C.ar    1  UNL1        0.1425
      8 C         139.3273  139.2879  164.7443 C.3     1  UNL1        0.0799
      9 C         139.2229  139.8148  163.3438 C.3     1  UNL1        0.0221
     10 C         137.8224  138.5978  166.7465 C.3     1  UNL1        0.0861
     11 N         138.2270  138.4404  165.3107 N.3     1  UNL1       -0.2939
     12 H         137.3956  138.6231  164.7488 H       1  UNL1        0.1235
     13 O         139.4745  141.8911  166.2282 O.3     1  UNL1       -0.4537
     14 C         139.4935  142.9612  165.1773 C.ar    1  UNL1        0.1462
     15 C         138.2383  143.3001  164.4291 C.ar    1  UNL1        0.0384
     16 C         138.2573  144.3703  163.3782 C.ar    1  UNL1        0.0154
     17 C         139.5315  145.1016  163.0755 C.ar    1  UNL1        0.0684
     18 CL        139.5505  146.1717  162.0246 Cl      1  UNL1       -0.0814
     19 C         140.7867  144.7627  163.8236 C.ar    1  UNL1        0.0712
     20 CL        142.0608  145.4940  163.5208 Cl      1  UNL1       -0.0813
     21 C         140.7677  143.6926  164.8745 C.ar    1  UNL1        0.0497
@<TRIPOS>BOND
     1    10    11    1
     2    11     8    1
     3     8     9    1
     4     8     1    1
     5     1     2   ar
     6     2     3   ar
     7     3     4    1
     8     3     5   ar
     9     5     6   ar
    10     6     7   ar
    11     7    13    1
    12    13    14    1
    13    14    15   ar
    14    15    16   ar
    15    16    17   ar
    16    17    18    1
    17    17    19   ar
    18    19    20    1
    19    19    21   ar
    20     7     1   ar
    21    21    14   ar
    22    11    12    1
