@<TRIPOS>MOLECULE
*****
 28 31 0 0 0
SMALL
GASTEIGER

@<TRIPOS>ATOM
      1 C         141.9007  140.2884  166.4160 C.2     1  UNL1        0.0025
      2 C         142.4402  141.0588  167.5845 C.2     1  UNL1        0.0130
      3 C         141.6097  141.2225  168.8228 C.3     1  UNL1        0.1542
      4 C         142.9798  141.8292  168.7530 C.3     1  UNL1        0.0614
      5 C         143.5193  142.5996  169.9214 C.3     1  UNL1        0.0725
      6 N         142.6888  142.7633  171.1598 N.3     1  UNL1       -0.2972
      7 C         141.3188  142.1566  171.2296 C.3     1  UNL1        0.0725
      8 C         140.7792  141.3862  170.0612 C.3     1  UNL1        0.0614
      9 O         140.2397  140.6157  168.8926 O.3     1  UNL1       -0.4785
     10 C         139.7001  139.8454  167.7242 C.ar    1  UNL1        0.1386
     11 C         138.3300  139.2386  167.7940 C.ar    1  UNL1        0.0369
     12 C         137.7905  138.4682  166.6255 C.ar    1  UNL1        0.0031
     13 C         138.6210  138.3045  165.3872 C.ar    1  UNL1        0.0002
     14 C         139.9910  138.9112  165.3173 C.ar    1  UNL1        0.0030
     15 C         140.5306  139.6817  166.4858 C.ar    1  UNL1        0.0338
     16 H         142.5746  143.7661  171.3073 H       1  UNL1        0.1233
     17 C         143.5564  140.3455  162.9059 C.ar    1  UNL1        0.0830
     18 C         142.4868  140.7933  163.8573 C.ar    1  UNL1        0.0115
     19 C         142.7312  140.1247  165.1776 C.ar    1  UNL1        0.0070
     20 C         143.9519  139.2636  165.0421 C.ar    1  UNL1        0.0356
     21 S         144.4619  139.4001  163.6381 S.2     1  UNL1       -0.0819
     22 N         144.3300  142.0865  161.1394 N.am    1  UNL1       -0.2757
     23 C         143.6960  140.7688  161.4736 C.2     1  UNL1        0.2550
     24 O         143.2017  139.8743  160.3756 O.2     1  UNL1       -0.2694
     25 C         143.3194  143.1677  159.0040 C.3     1  UNL1        0.0233
     26 C         144.4696  142.5098  159.7072 C.3     1  UNL1        0.0938
     27 C         144.8243  142.9809  162.2375 C.3     1  UNL1        0.0938
     28 C         143.9913  144.1433  162.6902 C.3     1  UNL1        0.0233
@<TRIPOS>BOND
     1    25    26    1
     2    26    22    1
     3    22    27    1
     4    27    28    1
     5    22    23   am
     6    23    24    2
     7    23    17    1
     8    17    18   ar
     9    18    19   ar
    10    19     1    1
    11     1     2    2
    12     2     3    1
    13     3     4    1
    14     4     5    1
    15     5     6    1
    16     6     7    1
    17     7     8    1
    18     3     9    1
    19     9    10    1
    20    10    11   ar
    21    11    12   ar
    22    12    13   ar
    23    13    14   ar
    24    14    15   ar
    25    19    20   ar
    26    20    21   ar
    27    21    17   ar
    28    15     1    1
    29     8     3    1
    30    15    10   ar
    31     6    16    1
@<TRIPOS>MOLECULE
*****
 28 31 0 0 0
SMALL
GASTEIGER

@<TRIPOS>ATOM
      1 C         140.6516  142.1136  166.5471 C.2     1  UNL1        0.0025
      2 C         141.2829  142.4551  167.8643 C.2     1  UNL1        0.0130
      3 C         140.9659  141.6385  169.0819 C.3     1  UNL1        0.1542
      4 C         141.9140  142.7966  169.1815 C.3     1  UNL1        0.0614
      5 C         142.5452  143.1380  170.4986 C.3     1  UNL1        0.0725
      6 N         142.2283  142.3214  171.7163 N.3     1  UNL1       -0.2972
      7 C         141.2802  141.1633  171.6168 C.3     1  UNL1        0.0725
      8 C         140.6490  140.8219  170.2996 C.3     1  UNL1        0.0614
      9 O         140.0178  140.4804  168.9824 O.3     1  UNL1       -0.4785
     10 C         139.3866  140.1389  167.6652 C.ar    1  UNL1        0.1386
     11 C         138.4385  138.9808  167.5656 C.ar    1  UNL1        0.0369
     12 C         137.8073  138.6393  166.2485 C.ar    1  UNL1        0.0031
     13 C         138.1243  139.4559  165.0308 C.ar    1  UNL1        0.0002
     14 C         139.0723  140.6140  165.1303 C.ar    1  UNL1        0.0030
     15 C         139.7036  140.9555  166.4475 C.ar    1  UNL1        0.0338
     16 H         141.8386  142.9624  172.4075 H       1  UNL1        0.1233
     17 C         141.9866  143.6930  163.2624 C.ar    1  UNL1        0.0830
     18 C         142.0129  142.6111  164.3011 C.ar    1  UNL1        0.0115
     19 C         140.9686  142.9302  165.3294 C.ar    1  UNL1        0.0070
     20 C         140.2968  144.2094  164.9263 C.ar    1  UNL1        0.0356
     21 S         140.9259  144.6808  163.6488 S.2     1  UNL1       -0.0819
     22 N         142.4346  143.1288  160.7662 N.am    1  UNL1       -0.2757
     23 C         142.8664  143.7731  162.0502 C.2     1  UNL1        0.2550
     24 O         144.1780  144.4973  162.1219 O.2     1  UNL1       -0.2694
     25 C         144.3354  142.1404  159.2964 C.3     1  UNL1        0.0233
     26 C         143.3144  143.2089  159.5540 C.3     1  UNL1        0.0938
     27 C         141.1230  142.4046  160.6945 C.3     1  UNL1        0.0938
     28 C         141.0543  140.9430  161.0245 C.3     1  UNL1        0.0233
@<TRIPOS>BOND
     1    25    26    1
     2    26    22    1
     3    22    27    1
     4    27    28    1
     5    22    23   am
     6    23    24    2
     7    23    17    1
     8    17    18   ar
     9    18    19   ar
    10    19     1    1
    11     1     2    2
    12     2     3    1
    13     3     4    1
    14     4     5    1
    15     5     6    1
    16     6     7    1
    17     7     8    1
    18     3     9    1
    19     9    10    1
    20    10    11   ar
    21    11    12   ar
    22    12    13   ar
    23    13    14   ar
    24    14    15   ar
    25    19    20   ar
    26    20    21   ar
    27    21    17   ar
    28    15     1    1
    29     8     3    1
    30    15    10   ar
    31     6    16    1
@<TRIPOS>MOLECULE
*****
 28 31 0 0 0
SMALL
GASTEIGER

@<TRIPOS>ATOM
      1 C         141.9429  140.8844  166.3979 C.2     1  UNL1        0.0025
      2 C         142.3350  141.5004  167.7082 C.2     1  UNL1        0.0130
      3 C         141.4482  141.3404  168.9074 C.3     1  UNL1        0.1542
      4 C         142.7270  142.1163  169.0185 C.3     1  UNL1        0.0614
      5 C         143.1191  142.7322  170.3288 C.3     1  UNL1        0.0725
      6 N         142.2323  142.5722  171.5280 N.3     1  UNL1       -0.2972
      7 C         140.9534  141.7963  171.4168 C.3     1  UNL1        0.0725
      8 C         140.5613  141.1804  170.1065 C.3     1  UNL1        0.0614
      9 O         140.1692  140.5644  168.7962 O.3     1  UNL1       -0.4785
     10 C         139.7772  139.9485  167.4859 C.ar    1  UNL1        0.1386
     11 C         138.4982  139.1726  167.3747 C.ar    1  UNL1        0.0369
     12 C         138.1062  138.5567  166.0644 C.ar    1  UNL1        0.0031
     13 C         138.9930  138.7167  164.8652 C.ar    1  UNL1        0.0002
     14 C         140.2719  139.4926  164.9764 C.ar    1  UNL1        0.0030
     15 C         140.6640  140.1085  166.2867 C.ar    1  UNL1        0.0338
     16 H         141.9809  143.5116  171.8357 H       1  UNL1        0.1233
     17 C         143.7591  141.8490  163.1060 C.ar    1  UNL1        0.0830
     18 C         142.6466  142.0419  164.0935 C.ar    1  UNL1        0.0115
     19 C         142.8297  141.0444  165.1988 C.ar    1  UNL1        0.0070
     20 C         144.0554  140.2351  164.8943 C.ar    1  UNL1        0.0356
     21 S         144.6298  140.7323  163.6009 S.2     1  UNL1       -0.0819
     22 N         143.5234  142.0685  160.5280 N.am    1  UNL1       -0.2757
     23 C         143.9648  142.6348  161.8450 C.2     1  UNL1        0.2550
     24 O         144.6118  143.9869  161.9010 O.2     1  UNL1       -0.2694
     25 C         144.8763  142.5267  158.3577 C.3     1  UNL1        0.0233
     26 C         143.7291  142.8543  159.2670 C.3     1  UNL1        0.0938
     27 C         142.8764  140.7164  160.4720 C.3     1  UNL1        0.0938
     28 C         143.6933  139.5079  160.1225 C.3     1  UNL1        0.0233
@<TRIPOS>BOND
     1    25    26    1
     2    26    22    1
     3    22    27    1
     4    27    28    1
     5    22    23   am
     6    23    24    2
     7    23    17    1
     8    17    18   ar
     9    18    19   ar
    10    19     1    1
    11     1     2    2
    12     2     3    1
    13     3     4    1
    14     4     5    1
    15     5     6    1
    16     6     7    1
    17     7     8    1
    18     3     9    1
    19     9    10    1
    20    10    11   ar
    21    11    12   ar
    22    12    13   ar
    23    13    14   ar
    24    14    15   ar
    25    19    20   ar
    26    20    21   ar
    27    21    17   ar
    28    15     1    1
    29     8     3    1
    30    15    10   ar
    31     6    16    1
@<TRIPOS>MOLECULE
*****
 28 31 0 0 0
SMALL
GASTEIGER

@<TRIPOS>ATOM
      1 C         140.7032  142.1367  166.0985 C.2     1  UNL1        0.0025
      2 C         140.5307  142.5321  167.5352 C.2     1  UNL1        0.0130
      3 C         141.2090  141.7443  168.6165 C.3     1  UNL1        0.1542
      4 C         140.3582  142.9275  168.9718 C.3     1  UNL1        0.0614
      5 C         140.1858  143.3229  170.4084 C.3     1  UNL1        0.0725
      6 N         140.8640  142.5350  171.4897 N.3     1  UNL1       -0.2972
      7 C         141.7148  141.3519  171.1345 C.3     1  UNL1        0.0725
      8 C         141.8872  140.9565  169.6978 C.3     1  UNL1        0.0614
      9 O         142.0597  140.5610  168.2612 O.3     1  UNL1       -0.4785
     10 C         142.2322  140.1657  166.8246 C.ar    1  UNL1        0.1386
     11 C         143.0830  138.9824  166.4692 C.ar    1  UNL1        0.0369
     12 C         143.2555  138.5870  165.0326 C.ar    1  UNL1        0.0031
     13 C         142.5772  139.3749  163.9513 C.ar    1  UNL1        0.0002
     14 C         141.7265  140.5580  164.3066 C.ar    1  UNL1        0.0030
     15 C         141.5539  140.9535  165.7432 C.ar    1  UNL1        0.0338
     16 H         140.1298  142.1941  172.1103 H       1  UNL1        0.1233
     17 C         139.6501  144.3397  163.0813 C.ar    1  UNL1        0.0830
     18 C         140.7086  143.7158  163.9418 C.ar    1  UNL1        0.0115
     19 C         140.0250  142.9245  165.0171 C.ar    1  UNL1        0.0070
     20 C         138.5439  143.0593  164.8212 C.ar    1  UNL1        0.0356
     21 S         138.3123  143.9339  163.6249 S.2     1  UNL1       -0.0819
     22 N         140.0558  144.6021  160.5286 N.am    1  UNL1       -0.2757
     23 C         139.8878  145.2156  161.8870 C.2     1  UNL1        0.2550
     24 O         139.9576  146.7050  162.0512 O.2     1  UNL1       -0.2694
     25 C         141.5153  145.2765  158.4877 C.3     1  UNL1        0.0233
     26 C         140.2935  145.4779  159.3343 C.3     1  UNL1        0.0938
     27 C         139.9860  143.1127  160.3645 C.3     1  UNL1        0.0938
     28 C         138.7095  142.4668  159.9137 C.3     1  UNL1        0.0233
@<TRIPOS>BOND
     1    25    26    1
     2    26    22    1
     3    22    27    1
     4    27    28    1
     5    22    23   am
     6    23    24    2
     7    23    17    1
     8    17    18   ar
     9    18    19   ar
    10    19     1    1
    11     1     2    2
    12     2     3    1
    13     3     4    1
    14     4     5    1
    15     5     6    1
    16     6     7    1
    17     7     8    1
    18     3     9    1
    19     9    10    1
    20    10    11   ar
    21    11    12   ar
    22    12    13   ar
    23    13    14   ar
    24    14    15   ar
    25    19    20   ar
    26    20    21   ar
    27    21    17   ar
    28    15     1    1
    29     8     3    1
    30    15    10   ar
    31     6    16    1
@<TRIPOS>MOLECULE
*****
 28 31 0 0 0
SMALL
GASTEIGER

@<TRIPOS>ATOM
      1 C         141.4927  141.9536  166.3333 C.2     1  UNL1        0.0025
      2 C         141.9293  142.2803  167.7307 C.2     1  UNL1        0.0130
      3 C         141.2829  141.5951  168.8980 C.3     1  UNL1        0.1542
      4 C         142.3659  142.6070  169.1281 C.3     1  UNL1        0.0614
      5 C         142.8024  142.9337  170.5254 C.3     1  UNL1        0.0725
      6 N         142.1560  142.2485  171.6927 N.3     1  UNL1       -0.2972
      7 C         141.0730  141.2365  171.4626 C.3     1  UNL1        0.0725
      8 C         140.6365  140.9098  170.0653 C.3     1  UNL1        0.0614
      9 O         140.1998  140.5830  168.6679 O.3     1  UNL1       -0.4785
     10 C         139.7633  140.2563  167.2705 C.ar    1  UNL1        0.1386
     11 C         138.6802  139.2443  167.0404 C.ar    1  UNL1        0.0369
     12 C         138.2437  138.9176  165.6430 C.ar    1  UNL1        0.0031
     13 C         138.8901  139.6029  164.4758 C.ar    1  UNL1        0.0002
     14 C         139.9731  140.6149  164.7058 C.ar    1  UNL1        0.0030
     15 C         140.4097  140.9416  166.1032 C.ar    1  UNL1        0.0338
     16 H         141.7551  142.9806  172.2789 H       1  UNL1        0.1233
     17 C         142.5057  143.6045  162.9697 C.ar    1  UNL1        0.0830
     18 C         141.5028  142.8978  163.8326 C.ar    1  UNL1        0.0115
     19 C         142.1391  142.6389  165.1660 C.ar    1  UNL1        0.0070
     20 C         143.5354  143.1856  165.1272 C.ar    1  UNL1        0.0356
     21 S         143.7620  143.7824  163.7698 S.2     1  UNL1       -0.0819
     22 N         141.2068  145.0423  161.2391 N.am    1  UNL1       -0.2757
     23 C         142.2903  144.0543  161.5551 C.2     1  UNL1        0.2550
     24 O         143.1583  143.5161  160.4564 O.2     1  UNL1       -0.2694
     25 C         140.1819  144.6489  158.8843 C.3     1  UNL1        0.0233
     26 C         140.9913  145.4922  159.8244 C.3     1  UNL1        0.0938
     27 C         140.3388  145.5805  162.3377 C.3     1  UNL1        0.0938
     28 C         138.9493  145.0475  162.5250 C.3     1  UNL1        0.0233
@<TRIPOS>BOND
     1    25    26    1
     2    26    22    1
     3    22    27    1
     4    27    28    1
     5    22    23   am
     6    23    24    2
     7    23    17    1
     8    17    18   ar
     9    18    19   ar
    10    19     1    1
    11     1     2    2
    12     2     3    1
    13     3     4    1
    14     4     5    1
    15     5     6    1
    16     6     7    1
    17     7     8    1
    18     3     9    1
    19     9    10    1
    20    10    11   ar
    21    11    12   ar
    22    12    13   ar
    23    13    14   ar
    24    14    15   ar
    25    19    20   ar
    26    20    21   ar
    27    21    17   ar
    28    15     1    1
    29     8     3    1
    30    15    10   ar
    31     6    16    1
@<TRIPOS>MOLECULE
*****
 28 31 0 0 0
SMALL
GASTEIGER

@<TRIPOS>ATOM
      1 C         140.4688  141.9866  165.5920 C.2     1  UNL1        0.0025
      2 C         140.5234  142.2828  167.0615 C.2     1  UNL1        0.0130
      3 C         140.0852  141.2454  168.0524 C.3     1  UNL1        0.1542
      4 C         140.5780  142.5789  168.5309 C.3     1  UNL1        0.0614
      5 C         140.6326  142.8750  170.0003 C.3     1  UNL1        0.0725
      6 N         140.1944  141.8376  170.9912 N.3     1  UNL1       -0.2972
      7 C         139.7016  140.5042  170.5127 C.3     1  UNL1        0.0725
      8 C         139.6470  140.2081  169.0433 C.3     1  UNL1        0.0614
      9 O         139.5924  139.9119  167.5738 O.3     1  UNL1       -0.4785
     10 C         139.5378  139.6158  166.1043 C.ar    1  UNL1        0.1386
     11 C         139.0450  138.2823  165.6257 C.ar    1  UNL1        0.0369
     12 C         138.9905  137.9862  164.1563 C.ar    1  UNL1        0.0031
     13 C         139.4287  139.0236  163.1654 C.ar    1  UNL1        0.0002
     14 C         139.9214  140.3570  163.6439 C.ar    1  UNL1        0.0030
     15 C         139.9760  140.6532  165.1134 C.ar    1  UNL1        0.0338
     16 H         139.4389  142.2522  171.5369 H       1  UNL1        0.1233
     17 C         140.9141  144.5775  162.7363 C.ar    1  UNL1        0.0830
     18 C         140.0851  143.5644  163.4686 C.ar    1  UNL1        0.0115
     19 C         140.9070  143.0240  164.6011 C.ar    1  UNL1        0.0070
     20 C         142.2441  143.7031  164.5686 C.ar    1  UNL1        0.0356
     21 S         142.2485  144.6632  163.4161 S.2     1  UNL1       -0.0819
     22 N         140.7062  144.8157  160.1576 N.am    1  UNL1       -0.2757
     23 C         140.4843  145.3663  161.5351 C.2     1  UNL1        0.2550
     24 O         139.8326  146.7058  161.7113 O.2     1  UNL1       -0.2694
     25 C         140.0701  144.9145  157.6405 C.3     1  UNL1        0.0233
     26 C         140.2763  145.6045  158.9563 C.3     1  UNL1        0.0938
     27 C         141.3579  143.4762  159.9813 C.3     1  UNL1        0.0938
     28 C         142.8401  143.3853  159.7700 C.3     1  UNL1        0.0233
@<TRIPOS>BOND
     1    25    26    1
     2    26    22    1
     3    22    27    1
     4    27    28    1
     5    22    23   am
     6    23    24    2
     7    23    17    1
     8    17    18   ar
     9    18    19   ar
    10    19     1    1
    11     1     2    2
    12     2     3    1
    13     3     4    1
    14     4     5    1
    15     5     6    1
    16     6     7    1
    17     7     8    1
    18     3     9    1
    19     9    10    1
    20    10    11   ar
    21    11    12   ar
    22    12    13   ar
    23    13    14   ar
    24    14    15   ar
    25    19    20   ar
    26    20    21   ar
    27    21    17   ar
    28    15     1    1
    29     8     3    1
    30    15    10   ar
    31     6    16    1
@<TRIPOS>MOLECULE
*****
 28 31 0 0 0
SMALL
GASTEIGER

@<TRIPOS>ATOM
      1 C         141.2954  141.7524  166.4088 C.2     1  UNL1        0.0025
      2 C         140.8346  142.2265  167.7553 C.2     1  UNL1        0.0130
      3 C         141.2300  141.4739  168.9912 C.3     1  UNL1        0.1542
      4 C         140.3738  142.7005  169.1018 C.3     1  UNL1        0.0614
      5 C         139.9130  143.1746  170.4482 C.3     1  UNL1        0.0725
      6 N         140.3084  142.4220  171.6840 N.3     1  UNL1       -0.2972
      7 C         141.1646  141.1954  171.5734 C.3     1  UNL1        0.0725
      8 C         141.6254  140.7214  170.2270 C.3     1  UNL1        0.0614
      9 O         142.0862  140.2473  168.8805 O.3     1  UNL1       -0.4785
     10 C         142.5470  139.7732  167.5341 C.ar    1  UNL1        0.1386
     11 C         143.4033  138.5466  167.4234 C.ar    1  UNL1        0.0369
     12 C         143.8641  138.0725  166.0770 C.ar    1  UNL1        0.0031
     13 C         143.4687  138.8251  164.8412 C.ar    1  UNL1        0.0002
     14 C         142.6125  140.0517  164.9518 C.ar    1  UNL1        0.0030
     15 C         142.1516  140.5258  166.2982 C.ar    1  UNL1        0.0338
     16 H         139.4440  142.1372  172.1445 H       1  UNL1        0.1233
     17 C         139.8108  143.1160  163.0919 C.ar    1  UNL1        0.0830
     18 C         139.8899  142.0621  164.1564 C.ar    1  UNL1        0.0115
     19 C         140.9000  142.5050  165.1730 C.ar    1  UNL1        0.0070
     20 C         141.4452  143.8325  164.7368 C.ar    1  UNL1        0.0356
     21 S         140.7721  144.2102  163.4506 S.2     1  UNL1       -0.0819
     22 N         139.4507  142.5422  160.5837 N.am    1  UNL1       -0.2757
     23 C         138.9259  143.0817  161.8812 C.2     1  UNL1        0.2550
     24 O         137.5161  143.5868  161.9681 O.2     1  UNL1       -0.2694
     25 C         138.2674  141.2014  158.6989 C.3     1  UNL1        0.0233
     26 C         138.5657  142.5079  159.3731 C.3     1  UNL1        0.0938
     27 C         140.8604  142.0370  160.4969 C.3     1  UNL1        0.0938
     28 C         141.9319  142.9024  159.9027 C.3     1  UNL1        0.0233
@<TRIPOS>BOND
     1    25    26    1
     2    26    22    1
     3    22    27    1
     4    27    28    1
     5    22    23   am
     6    23    24    2
     7    23    17    1
     8    17    18   ar
     9    18    19   ar
    10    19     1    1
    11     1     2    2
    12     2     3    1
    13     3     4    1
    14     4     5    1
    15     5     6    1
    16     6     7    1
    17     7     8    1
    18     3     9    1
    19     9    10    1
    20    10    11   ar
    21    11    12   ar
    22    12    13   ar
    23    13    14   ar
    24    14    15   ar
    25    19    20   ar
    26    20    21   ar
    27    21    17   ar
    28    15     1    1
    29     8     3    1
    30    15    10   ar
    31     6    16    1
@<TRIPOS>MOLECULE
*****
 28 31 0 0 0
SMALL
GASTEIGER

@<TRIPOS>ATOM
      1 C         142.1888  141.6733  165.4813 C.2     1  UNL1        0.0025
      2 C         142.2782  140.8821  166.7527 C.2     1  UNL1        0.0130
      3 C         141.3273  141.1619  167.8785 C.3     1  UNL1        0.1542
      4 C         142.3676  140.0911  168.0239 C.3     1  UNL1        0.0614
      5 C         142.4569  139.3001  169.2952 C.3     1  UNL1        0.0725
      6 N         141.5060  139.5798  170.4211 N.3     1  UNL1       -0.2972
      7 C         140.4657  140.6506  170.2756 C.3     1  UNL1        0.0725
      8 C         140.3764  141.4416  169.0043 C.3     1  UNL1        0.0614
      9 O         140.2870  142.2327  167.7330 O.3     1  UNL1       -0.4785
     10 C         140.1976  143.0238  166.4617 C.ar    1  UNL1        0.1386
     11 C         139.1573  144.0946  166.3162 C.ar    1  UNL1        0.0369
     12 C         139.0679  144.8856  165.0449 C.ar    1  UNL1        0.0031
     13 C         140.0188  144.6059  163.9191 C.ar    1  UNL1        0.0002
     14 C         141.0591  143.5351  164.0645 C.ar    1  UNL1        0.0030
     15 C         141.1485  142.7440  165.3359 C.ar    1  UNL1        0.0338
     16 H         142.0738  139.8289  171.2310 H       1  UNL1        0.1233
     17 C         144.0338  140.7104  162.2050 C.ar    1  UNL1        0.0830
     18 C         142.7777  140.8203  163.0174 C.ar    1  UNL1        0.0115
     19 C         143.1397  141.3935  164.3555 C.ar    1  UNL1        0.0070
     20 C         144.6196  141.6379  164.3700 C.ar    1  UNL1        0.0356
     21 S         145.1722  141.2157  163.0409 S.2     1  UNL1       -0.0819
     22 N         143.9921  141.1245  159.6405 N.am    1  UNL1       -0.2757
     23 C         144.1340  140.1870  160.8028 C.2     1  UNL1        0.2550
     24 O         144.3760  138.7262  160.5630 O.2     1  UNL1       -0.2694
     25 C         142.8499  140.2168  157.4907 C.3     1  UNL1        0.0233
     26 C         144.0923  140.6011  158.2384 C.3     1  UNL1        0.0938
     27 C         143.7500  142.5853  159.8804 C.3     1  UNL1        0.0938
     28 C         142.3498  143.1230  159.8825 C.3     1  UNL1        0.0233
@<TRIPOS>BOND
     1    25    26    1
     2    26    22    1
     3    22    27    1
     4    27    28    1
     5    22    23   am
     6    23    24    2
     7    23    17    1
     8    17    18   ar
     9    18    19   ar
    10    19     1    1
    11     1     2    2
    12     2     3    1
    13     3     4    1
    14     4     5    1
    15     5     6    1
    16     6     7    1
    17     7     8    1
    18     3     9    1
    19     9    10    1
    20    10    11   ar
    21    11    12   ar
    22    12    13   ar
    23    13    14   ar
    24    14    15   ar
    25    19    20   ar
    26    20    21   ar
    27    21    17   ar
    28    15     1    1
    29     8     3    1
    30    15    10   ar
    31     6    16    1
@<TRIPOS>MOLECULE
*****
 28 31 0 0 0
SMALL
GASTEIGER

@<TRIPOS>ATOM
      1 C         140.3690  141.6457  165.8950 C.2     1  UNL1        0.0025
      2 C         140.0161  141.1526  167.2670 C.2     1  UNL1        0.0130
      3 C         141.0157  141.2547  168.3808 C.3     1  UNL1        0.1542
      4 C         139.6633  140.6596  168.6390 C.3     1  UNL1        0.0614
      5 C         139.3105  140.1665  170.0110 C.3     1  UNL1        0.0725
      6 N         140.3101  140.2686  171.1247 N.3     1  UNL1       -0.2972
      7 C         141.6625  140.8638  170.8665 C.3     1  UNL1        0.0725
      8 C         142.0153  141.3568  169.4945 C.3     1  UNL1        0.0614
      9 O         142.3682  141.8499  168.1224 O.3     1  UNL1       -0.4785
     10 C         142.7210  142.3429  166.7505 C.ar    1  UNL1        0.1386
     11 C         144.0735  142.9381  166.4921 C.ar    1  UNL1        0.0369
     12 C         144.4263  143.4312  165.1202 C.ar    1  UNL1        0.0031
     13 C         143.4267  143.3291  164.0064 C.ar    1  UNL1        0.0002
     14 C         142.0743  142.7339  164.2647 C.ar    1  UNL1        0.0030
     15 C         141.7214  142.2408  165.6367 C.ar    1  UNL1        0.0338
     16 H         140.4662  139.3209  171.4681 H       1  UNL1        0.1233
     17 C         138.2768  140.8989  162.7121 C.ar    1  UNL1        0.0830
     18 C         139.5029  140.6947  163.5518 C.ar    1  UNL1        0.0115
     19 C         139.3694  141.5436  164.7813 C.ar    1  UNL1        0.0070
     20 C         138.0608  142.2724  164.7014 C.ar    1  UNL1        0.0356
     21 S         137.3855  141.8740  163.4227 S.2     1  UNL1       -0.0819
     22 N         138.2828  140.9719  160.1151 N.am    1  UNL1       -0.2757
     23 C         137.9920  140.2431  161.3935 C.2     1  UNL1        0.2550
     24 O         137.4163  138.8585  161.3532 O.2     1  UNL1       -0.2694
     25 C         138.1000  141.1089  157.5271 C.3     1  UNL1        0.0233
     26 C         137.9980  140.3162  158.7965 C.3     1  UNL1        0.0938
     27 C         138.8585  142.3565  160.1554 C.3     1  UNL1        0.0938
     28 C         140.3458  142.5501  160.1765 C.3     1  UNL1        0.0233
@<TRIPOS>BOND
     1    25    26    1
     2    26    22    1
     3    22    27    1
     4    27    28    1
     5    22    23   am
     6    23    24    2
     7    23    17    1
     8    17    18   ar
     9    18    19   ar
    10    19     1    1
    11     1     2    2
    12     2     3    1
    13     3     4    1
    14     4     5    1
    15     5     6    1
    16     6     7    1
    17     7     8    1
    18     3     9    1
    19     9    10    1
    20    10    11   ar
    21    11    12   ar
    22    12    13   ar
    23    13    14   ar
    24    14    15   ar
    25    19    20   ar
    26    20    21   ar
    27    21    17   ar
    28    15     1    1
    29     8     3    1
    30    15    10   ar
    31     6    16    1
