@<TRIPOS>MOLECULE
*****
 36 41 0 0 0
SMALL
GASTEIGER

@<TRIPOS>ATOM
      1 C         143.5167  139.5653  159.8047 C.ar    1  UNL1        0.1382
      2 C         142.5628  138.4077  159.8176 C.ar    1  UNL1        0.0366
      3 C         141.6630  138.1905  160.9979 C.ar    1  UNL1       -0.0015
      4 C         141.7171  139.1309  162.1653 C.ar    1  UNL1       -0.0263
      5 C         142.6709  140.2885  162.1523 C.ar    1  UNL1       -0.0231
      6 C         143.5707  140.5057  160.9720 C.ar    1  UNL1        0.0323
      7 C         142.7249  141.2289  163.3197 C.3     1  UNL1        0.0261
      8 C         141.8251  141.0118  164.5000 C.3     1  UNL1        0.0050
      9 C         140.8712  139.8541  164.5130 C.3     1  UNL1        0.0052
     10 C         139.9714  139.6370  165.6933 C.3     1  UNL1        0.0159
     11 C         139.8017  140.3918  166.9784 C.3     1  UNL1        0.0844
     12 C         138.7430  139.7007  167.7856 C.3     1  UNL1        0.0735
     13 C         138.2584  138.5188  166.9994 C.2     1  UNL1        0.1503
     14 O         137.2003  137.5469  167.4305 O.2     1  UNL1       -0.2961
     15 C         139.0175  138.4794  165.7063 C.3     1  UNL1        0.0520
     16 C         138.0179  137.3718  165.8608 C.3     1  UNL1        0.0073
     17 C         138.9635  137.5390  164.5389 C.3     1  UNL1        0.0073
     18 C         139.8634  137.7562  163.3586 C.3     1  UNL1        0.0048
     19 C         140.8172  138.9137  163.3456 C.3     1  UNL1        0.0221
     20 C         140.5580  141.6217  167.3849 C.2     1  UNL1        0.2256
     21 O         140.2159  142.9485  166.7746 O.2     1  UNL1       -0.2749
     22 N         141.6565  141.5249  168.4017 N.am    1  UNL1       -0.2795
     23 C         142.4956  142.6622  168.9042 C.3     1  UNL1        0.0935
     24 C         143.4664  142.1139  169.9077 C.3     1  UNL1        0.0233
     25 C         143.2273  140.6378  170.0254 C.3     1  UNL1        0.0233
     26 C         142.1087  140.2737  169.0946 C.3     1  UNL1        0.0935
     27 O         144.4165  139.7825  158.6243 O.3     1  UNL1       -0.4754
     28 C         144.1110  140.8710  157.6386 C.3     1  UNL1        0.2068
     29 C         142.6864  141.2145  157.3181 C.3     1  UNL1        0.0646
     30 C         142.0325  142.3926  157.9772 C.3     1  UNL1        0.0759
     31 C         141.8401  144.1631  160.7117 C.3     1  UNL1        0.0173
     32 C         140.9709  142.9937  160.3555 C.3     1  UNL1        0.0576
     33 C         139.8606  142.4328  161.1937 C.3     1  UNL1        0.0174
     34 C         139.2628  141.2723  160.4549 C.3     1  UNL1        0.0187
     35 C         140.0036  141.1160  159.1600 C.3     1  UNL1        0.0721
     36 N         141.0593  142.1798  159.0986 N.3     1  UNL1       -0.2738
@<TRIPOS>BOND
     1    32    31    1
     2    32    33    1
     3    33    34    1
     4    34    35    1
     5    35    36    1
     6    36    30    1
     7    30    29    1
     8    29    28    1
     9    28    27    1
    10    27     1    1
    11     1     2   ar
    12     2     3   ar
    13     3     4   ar
    14     4     5   ar
    15     5     6   ar
    16     5     7    1
    17     7     8    1
    18     9     8    1
    19     9    10    1
    20    10    11    1
    21    11    20    1
    22    20    21    2
    23    20    22   am
    24    22    23    1
    25    23    24    1
    26    24    25    1
    27    25    26    1
    28    11    12    1
    29    12    13    1
    30    13    14    2
    31    13    15    1
    32    15    16    1
    33    15    17    1
    34    17    18    1
    35    19    18    1
    36    36    32    1
    37     6     1   ar
    38    19     9    1
    39    19     4    1
    40    15    10    1
    41    26    22    1
@<TRIPOS>MOLECULE
*****
 36 41 0 0 0
SMALL
GASTEIGER

@<TRIPOS>ATOM
      1 C         143.5731  139.5365  159.6689 C.ar    1  UNL1        0.1382
      2 C         142.6262  138.3733  159.6837 C.ar    1  UNL1        0.0366
      3 C         141.7281  138.1524  160.8645 C.ar    1  UNL1       -0.0015
      4 C         141.7768  139.0947  162.0306 C.ar    1  UNL1       -0.0263
      5 C         142.7237  140.2579  162.0158 C.ar    1  UNL1       -0.0231
      6 C         143.6219  140.4788  160.8350 C.ar    1  UNL1        0.0323
      7 C         142.7725  141.2002  163.1819 C.3     1  UNL1        0.0261
      8 C         141.8743  140.9793  164.3628 C.3     1  UNL1        0.0050
      9 C         140.9274  139.8160  164.3776 C.3     1  UNL1        0.0052
     10 C         140.0292  139.5951  165.5585 C.3     1  UNL1        0.0159
     11 C         139.8554  140.3506  166.8426 C.3     1  UNL1        0.0844
     12 C         138.8010  139.6543  167.6510 C.3     1  UNL1        0.0735
     13 C         138.3232  138.4684  166.8665 C.2     1  UNL1        0.1503
     14 O         137.2711  137.4908  167.2993 O.2     1  UNL1       -0.2961
     15 C         139.0822  138.4318  165.5733 C.3     1  UNL1        0.0520
     16 C         138.0892  137.3185  165.7296 C.3     1  UNL1        0.0073
     17 C         139.0335  137.4895  164.4072 C.3     1  UNL1        0.0073
     18 C         139.9317  137.7105  163.2263 C.3     1  UNL1        0.0048
     19 C         140.8786  138.8737  163.2115 C.3     1  UNL1        0.0221
     20 C         140.6044  141.5855  167.2472 C.2     1  UNL1        0.2256
     21 O         140.2887  142.9006  166.5985 O.2     1  UNL1       -0.2749
     22 N         141.6693  141.5055  168.3006 N.am    1  UNL1       -0.2795
     23 C         142.4976  142.6495  168.8057 C.3     1  UNL1        0.0935
     24 C         143.4331  142.1184  169.8512 C.3     1  UNL1        0.0233
     25 C         143.1829  140.6461  169.9921 C.3     1  UNL1        0.0233
     26 C         142.0928  140.2673  169.0338 C.3     1  UNL1        0.0935
     27 O         144.4713  139.7575  158.4880 O.3     1  UNL1       -0.4754
     28 C         144.0135  140.6184  157.3482 C.3     1  UNL1        0.2068
     29 C         142.6627  140.3952  156.7352 C.3     1  UNL1        0.0646
     30 C         142.5068  139.4357  155.5928 C.3     1  UNL1        0.0759
     31 C         140.2815  137.3314  156.7193 C.3     1  UNL1        0.0173
     32 C         141.6919  136.9995  156.3313 C.3     1  UNL1        0.0576
     33 C         142.3270  135.6420  156.3929 C.3     1  UNL1        0.0174
     34 C         143.7425  135.7702  155.9133 C.3     1  UNL1        0.0187
     35 C         143.9821  137.2070  155.5551 C.3     1  UNL1        0.0721
     36 N         142.7148  137.9667  155.8135 N.3     1  UNL1       -0.2738
@<TRIPOS>BOND
     1    32    31    1
     2    32    33    1
     3    33    34    1
     4    34    35    1
     5    35    36    1
     6    36    30    1
     7    30    29    1
     8    29    28    1
     9    28    27    1
    10    27     1    1
    11     1     2   ar
    12     2     3   ar
    13     3     4   ar
    14     4     5   ar
    15     5     6   ar
    16     5     7    1
    17     7     8    1
    18     9     8    1
    19     9    10    1
    20    10    11    1
    21    11    20    1
    22    20    21    2
    23    20    22   am
    24    22    23    1
    25    23    24    1
    26    24    25    1
    27    25    26    1
    28    11    12    1
    29    12    13    1
    30    13    14    2
    31    13    15    1
    32    15    16    1
    33    15    17    1
    34    17    18    1
    35    19    18    1
    36    36    32    1
    37     6     1   ar
    38    19     9    1
    39    19     4    1
    40    15    10    1
    41    26    22    1
@<TRIPOS>MOLECULE
*****
 36 41 0 0 0
SMALL
GASTEIGER

@<TRIPOS>ATOM
      1 C         142.2085  139.7976  157.5978 C.ar    1  UNL1        0.1382
      2 C         143.4158  139.1775  158.2363 C.ar    1  UNL1        0.0366
      3 C         143.4955  139.0557  159.7292 C.ar    1  UNL1       -0.0015
      4 C         142.3677  139.5539  160.5836 C.ar    1  UNL1       -0.0263
      5 C         141.1604  140.1740  159.9451 C.ar    1  UNL1       -0.0231
      6 C         141.0808  140.2959  158.4522 C.ar    1  UNL1        0.0323
      7 C         140.0327  140.6722  160.7995 C.3     1  UNL1        0.0261
      8 C         140.1123  140.5504  162.2924 C.3     1  UNL1        0.0050
      9 C         141.3197  139.9302  162.9310 C.3     1  UNL1        0.0052
     10 C         141.3993  139.8084  164.4239 C.3     1  UNL1        0.0159
     11 C         140.4508  140.2066  165.5155 C.3     1  UNL1        0.0844
     12 C         141.0719  139.8327  166.8286 C.3     1  UNL1        0.0735
     13 C         142.4044  139.2033  166.5486 C.2     1  UNL1        0.1503
     14 O         143.3657  138.6807  167.5746 O.2     1  UNL1       -0.2961
     15 C         142.6068  139.1882  165.0624 C.3     1  UNL1        0.0520
     16 C         143.7443  138.5942  165.8391 C.3     1  UNL1        0.0073
     17 C         143.7345  138.6900  164.2080 C.3     1  UNL1        0.0073
     18 C         143.6548  138.8119  162.7151 C.3     1  UNL1        0.0048
     19 C         142.4474  139.4320  162.0766 C.3     1  UNL1        0.0221
     20 C         139.1155  140.8635  165.3270 C.2     1  UNL1        0.2256
     21 O         137.8592  140.0496  165.4214 O.2     1  UNL1       -0.2749
     22 N         139.0366  142.3345  165.0440 N.am    1  UNL1       -0.2795
     23 C         137.7797  143.1257  164.8337 C.3     1  UNL1        0.0935
     24 C         138.1670  144.5528  164.5814 C.3     1  UNL1        0.0233
     25 C         139.6633  144.6434  164.6357 C.3     1  UNL1        0.0233
     26 C         140.2008  143.2725  164.9216 C.3     1  UNL1        0.0935
     27 O         142.1288  139.9195  156.1049 O.3     1  UNL1       -0.4754
     28 C         142.2835  141.2614  155.4526 C.3     1  UNL1        0.2068
     29 C         143.3398  142.2117  155.9334 C.3     1  UNL1        0.0646
     30 C         142.9886  143.2881  156.9172 C.3     1  UNL1        0.0759
     31 C         141.1268  144.1559  159.4529 C.3     1  UNL1        0.0173
     32 C         142.4841  143.5223  159.5317 C.3     1  UNL1        0.0576
     33 C         143.2240  143.1764  160.7898 C.3     1  UNL1        0.0174
     34 C         144.5371  142.5638  160.4019 C.3     1  UNL1        0.0187
     35 C         144.6087  142.5310  158.9040 C.3     1  UNL1        0.0721
     36 N         143.3399  143.1235  158.3661 N.3     1  UNL1       -0.2738
@<TRIPOS>BOND
     1    32    31    1
     2    32    33    1
     3    33    34    1
     4    34    35    1
     5    35    36    1
     6    36    30    1
     7    30    29    1
     8    29    28    1
     9    28    27    1
    10    27     1    1
    11     1     2   ar
    12     2     3   ar
    13     3     4   ar
    14     4     5   ar
    15     5     6   ar
    16     5     7    1
    17     7     8    1
    18     9     8    1
    19     9    10    1
    20    10    11    1
    21    11    20    1
    22    20    21    2
    23    20    22   am
    24    22    23    1
    25    23    24    1
    26    24    25    1
    27    25    26    1
    28    11    12    1
    29    12    13    1
    30    13    14    2
    31    13    15    1
    32    15    16    1
    33    15    17    1
    34    17    18    1
    35    19    18    1
    36    36    32    1
    37     6     1   ar
    38    19     9    1
    39    19     4    1
    40    15    10    1
    41    26    22    1
@<TRIPOS>MOLECULE
*****
 36 41 0 0 0
SMALL
GASTEIGER

@<TRIPOS>ATOM
      1 C         139.9968  139.7112  156.9781 C.ar    1  UNL1        0.1382
      2 C         139.5736  138.4718  157.7093 C.ar    1  UNL1        0.0366
      3 C         139.4112  138.4992  159.2002 C.ar    1  UNL1       -0.0015
      4 C         139.6721  139.7661  159.9599 C.ar    1  UNL1       -0.0263
      5 C         140.0954  141.0054  159.2287 C.ar    1  UNL1       -0.0231
      6 C         140.2577  140.9780  157.7378 C.ar    1  UNL1        0.0323
      7 C         140.3563  142.2722  159.9884 C.3     1  UNL1        0.0261
      8 C         140.1939  142.2997  161.4793 C.3     1  UNL1        0.0050
      9 C         139.7706  141.0603  162.2106 C.3     1  UNL1        0.0052
     10 C         139.6082  141.0877  163.7015 C.3     1  UNL1        0.0159
     11 C         139.7931  142.1813  164.7113 C.3     1  UNL1        0.0844
     12 C         139.4841  141.6178  166.0667 C.3     1  UNL1        0.0735
     13 C         139.1082  140.1760  165.8945 C.2     1  UNL1        0.1503
     14 O         138.7232  139.2281  166.9915 O.2     1  UNL1       -0.2961
     15 C         139.1849  139.8483  164.4328 C.3     1  UNL1        0.0520
     16 C         138.7699  138.6938  165.2959 C.3     1  UNL1        0.0073
     17 C         138.9240  138.5815  163.6731 C.3     1  UNL1        0.0073
     18 C         139.0864  138.5541  162.1821 C.3     1  UNL1        0.0048
     19 C         139.5097  139.7935  161.4509 C.3     1  UNL1        0.0221
     20 C         140.2133  143.5909  164.4174 C.2     1  UNL1        0.2256
     21 O         139.1827  144.6768  164.3240 O.2     1  UNL1       -0.2749
     22 N         141.6641  143.9148  164.2168 N.am    1  UNL1       -0.2795
     23 C         142.2317  145.2707  163.9180 C.3     1  UNL1        0.0935
     24 C         143.7205  145.1335  163.7963 C.3     1  UNL1        0.0233
     25 C         144.0729  143.6927  164.0199 C.3     1  UNL1        0.0233
     26 C         142.8020  142.9395  164.2798 C.3     1  UNL1        0.0935
     27 O         140.1592  139.6838  155.4871 O.3     1  UNL1       -0.4754
     28 C         141.5122  139.4474  154.8843 C.3     1  UNL1        0.2068
     29 C         142.4861  138.5305  155.5633 C.3     1  UNL1        0.0646
     30 C         143.5061  139.0887  156.5109 C.3     1  UNL1        0.0759
     31 C         144.0288  141.3451  158.8098 C.3     1  UNL1        0.0173
     32 C         143.5813  139.9330  159.0459 C.3     1  UNL1        0.0576
     33 C         143.2956  139.3101  160.3802 C.3     1  UNL1        0.0174
     34 C         142.8787  137.8880  160.1482 C.3     1  UNL1        0.0187
     35 C         142.9068  137.6319  158.6705 C.3     1  UNL1        0.0721
     36 N         143.3411  138.8958  157.9893 N.3     1  UNL1       -0.2738
@<TRIPOS>BOND
     1    32    31    1
     2    32    33    1
     3    33    34    1
     4    34    35    1
     5    35    36    1
     6    36    30    1
     7    30    29    1
     8    29    28    1
     9    28    27    1
    10    27     1    1
    11     1     2   ar
    12     2     3   ar
    13     3     4   ar
    14     4     5   ar
    15     5     6   ar
    16     5     7    1
    17     7     8    1
    18     9     8    1
    19     9    10    1
    20    10    11    1
    21    11    20    1
    22    20    21    2
    23    20    22   am
    24    22    23    1
    25    23    24    1
    26    24    25    1
    27    25    26    1
    28    11    12    1
    29    12    13    1
    30    13    14    2
    31    13    15    1
    32    15    16    1
    33    15    17    1
    34    17    18    1
    35    19    18    1
    36    36    32    1
    37     6     1   ar
    38    19     9    1
    39    19     4    1
    40    15    10    1
    41    26    22    1
@<TRIPOS>MOLECULE
*****
 36 41 0 0 0
SMALL
GASTEIGER

@<TRIPOS>ATOM
      1 C         142.9924  140.0750  165.9359 C.ar    1  UNL1        0.1382
      2 C         143.2843  141.5392  165.7922 C.ar    1  UNL1        0.0366
      3 C         142.8366  142.2763  164.5650 C.ar    1  UNL1       -0.0015
      4 C         142.0969  141.5492  163.4814 C.ar    1  UNL1       -0.0263
      5 C         141.8049  140.0849  163.6251 C.ar    1  UNL1       -0.0231
      6 C         142.2527  139.3478  164.8523 C.ar    1  UNL1        0.0323
      7 C         141.0652  139.3578  162.5415 C.3     1  UNL1        0.0261
      8 C         140.6175  140.0949  161.3143 C.3     1  UNL1        0.0050
      9 C         140.9094  141.5592  161.1706 C.3     1  UNL1        0.0052
     10 C         140.4617  142.2963  159.9433 C.3     1  UNL1        0.0159
     11 C         139.7195  141.8493  158.7189 C.3     1  UNL1        0.0844
     12 C         139.5527  143.0374  157.8184 C.3     1  UNL1        0.0735
     13 C         140.1919  144.2186  158.4863 C.2     1  UNL1        0.1503
     14 O         140.2577  145.6130  157.9374 O.2     1  UNL1       -0.2961
     15 C         140.7537  143.7606  159.7996 C.3     1  UNL1        0.0520
     16 C         140.9723  145.2175  159.5172 C.3     1  UNL1        0.0073
     17 C         141.4934  144.4878  160.8831 C.3     1  UNL1        0.0073
     18 C         141.9411  143.7506  162.1104 C.3     1  UNL1        0.0048
     19 C         141.6491  142.2863  162.2541 C.3     1  UNL1        0.0221
     20 C         139.2299  140.4585  158.4433 C.2     1  UNL1        0.2256
     21 O         137.8156  140.0823  158.7719 O.2     1  UNL1       -0.2749
     22 N         140.1548  139.4438  157.8390 N.am    1  UNL1       -0.2795
     23 C         139.8091  138.0221  157.5087 C.3     1  UNL1        0.0935
     24 C         141.0285  137.3723  156.9245 C.3     1  UNL1        0.0233
     25 C         142.1277  138.3926  156.8939 C.3     1  UNL1        0.0233
     26 C         141.5877  139.6728  157.4591 C.3     1  UNL1        0.0935
     27 O         143.4401  139.3378  167.1632 O.3     1  UNL1       -0.4754
     28 C         142.5414  139.2610  168.3616 C.3     1  UNL1        0.2068
     29 C         141.4980  140.3152  168.5854 C.3     1  UNL1        0.0646
     30 C         140.0644  140.0360  168.2438 C.3     1  UNL1        0.0759
     31 C         138.2455  138.2766  166.1833 C.3     1  UNL1        0.0173
     32 C         138.6613  139.7052  165.9929 C.3     1  UNL1        0.0576
     33 C         138.3140  140.5759  164.8219 C.3     1  UNL1        0.0174
     34 C         138.9354  141.9228  165.0452 C.3     1  UNL1        0.0187
     35 C         139.6667  141.8844  166.3543 C.3     1  UNL1        0.0721
     36 N         139.4973  140.5139  166.9400 N.3     1  UNL1       -0.2738
@<TRIPOS>BOND
     1    32    31    1
     2    32    33    1
     3    33    34    1
     4    34    35    1
     5    35    36    1
     6    36    30    1
     7    30    29    1
     8    29    28    1
     9    28    27    1
    10    27     1    1
    11     1     2   ar
    12     2     3   ar
    13     3     4   ar
    14     4     5   ar
    15     5     6   ar
    16     5     7    1
    17     7     8    1
    18     9     8    1
    19     9    10    1
    20    10    11    1
    21    11    20    1
    22    20    21    2
    23    20    22   am
    24    22    23    1
    25    23    24    1
    26    24    25    1
    27    25    26    1
    28    11    12    1
    29    12    13    1
    30    13    14    2
    31    13    15    1
    32    15    16    1
    33    15    17    1
    34    17    18    1
    35    19    18    1
    36    36    32    1
    37     6     1   ar
    38    19     9    1
    39    19     4    1
    40    15    10    1
    41    26    22    1
@<TRIPOS>MOLECULE
*****
 36 41 0 0 0
SMALL
GASTEIGER

@<TRIPOS>ATOM
      1 C         143.5073  139.6689  159.6735 C.ar    1  UNL1        0.1382
      2 C         142.5486  138.5153  159.6811 C.ar    1  UNL1        0.0366
      3 C         141.6612  138.2856  160.8683 C.ar    1  UNL1       -0.0015
      4 C         141.7323  139.2094  162.0479 C.ar    1  UNL1       -0.0263
      5 C         142.6910  140.3630  162.0403 C.ar    1  UNL1       -0.0231
      6 C         143.5785  140.5928  160.8531 C.ar    1  UNL1        0.0323
      7 C         142.7621  141.2869  163.2199 C.3     1  UNL1        0.0261
      8 C         141.8746  141.0572  164.4071 C.3     1  UNL1        0.0050
      9 C         140.9159  139.9035  164.4148 C.3     1  UNL1        0.0052
     10 C         140.0284  139.6737  165.6020 C.3     1  UNL1        0.0159
     11 C         139.8764  140.4113  166.8992 C.3     1  UNL1        0.0844
     12 C         138.8237  139.7136  167.7086 C.3     1  UNL1        0.0735
     13 C         138.3252  138.5447  166.9116 C.2     1  UNL1        0.1503
     14 O         137.2678  137.5714  167.3411 O.2     1  UNL1       -0.2961
     15 C         139.0697  138.5201  165.6097 C.3     1  UNL1        0.0520
     16 C         138.0670  137.4146  165.7601 C.3     1  UNL1        0.0073
     17 C         138.9985  137.5962  164.4301 C.3     1  UNL1        0.0073
     18 C         139.8861  137.8260  163.2428 C.3     1  UNL1        0.0048
     19 C         140.8448  138.9796  163.2352 C.3     1  UNL1        0.0221
     20 C         140.6425  141.6323  167.3142 C.2     1  UNL1        0.2256
     21 O         140.3541  142.9546  166.6673 O.2     1  UNL1       -0.2749
     22 N         141.6971  141.5311  168.3761 N.am    1  UNL1       -0.2795
     23 C         142.5400  142.6596  168.8919 C.3     1  UNL1        0.0935
     24 C         143.4578  142.1095  169.9433 C.3     1  UNL1        0.0233
     25 C         143.1820  140.6412  170.0771 C.3     1  UNL1        0.0233
     26 C         142.0938  140.2837  169.1086 C.3     1  UNL1        0.0935
     27 O         144.3949  139.8987  158.4862 O.3     1  UNL1       -0.4754
     28 C         144.3591  141.2143  157.7666 C.3     1  UNL1        0.2068
     29 C         145.6005  141.7459  157.1135 C.3     1  UNL1        0.0646
     30 C         146.0297  141.2178  155.7768 C.3     1  UNL1        0.0759
     31 C         145.3886  143.6970  153.7540 C.3     1  UNL1        0.0173
     32 C         146.7419  143.1121  154.0306 C.3     1  UNL1        0.0576
     33 C         148.0380  143.5640  153.4259 C.3     1  UNL1        0.0174
     34 C         149.1339  142.7038  153.9820 C.3     1  UNL1        0.0187
     35 C         148.5149  141.7202  154.9303 C.3     1  UNL1        0.0721
     36 N         147.0366  141.9725  154.9604 N.3     1  UNL1       -0.2738
@<TRIPOS>BOND
     1    32    31    1
     2    32    33    1
     3    33    34    1
     4    34    35    1
     5    35    36    1
     6    36    30    1
     7    30    29    1
     8    29    28    1
     9    28    27    1
    10    27     1    1
    11     1     2   ar
    12     2     3   ar
    13     3     4   ar
    14     4     5   ar
    15     5     6   ar
    16     5     7    1
    17     7     8    1
    18     9     8    1
    19     9    10    1
    20    10    11    1
    21    11    20    1
    22    20    21    2
    23    20    22   am
    24    22    23    1
    25    23    24    1
    26    24    25    1
    27    25    26    1
    28    11    12    1
    29    12    13    1
    30    13    14    2
    31    13    15    1
    32    15    16    1
    33    15    17    1
    34    17    18    1
    35    19    18    1
    36    36    32    1
    37     6     1   ar
    38    19     9    1
    39    19     4    1
    40    15    10    1
    41    26    22    1
@<TRIPOS>MOLECULE
*****
 36 41 0 0 0
SMALL
GASTEIGER

@<TRIPOS>ATOM
      1 C         139.3388  137.7026  163.8085 C.ar    1  UNL1        0.1382
      2 C         140.7510  137.3512  163.4452 C.ar    1  UNL1        0.0366
      3 C         141.2833  137.6948  162.0856 C.ar    1  UNL1       -0.0015
      4 C         140.4034  138.3898  161.0893 C.ar    1  UNL1       -0.0263
      5 C         138.9911  138.7412  161.4525 C.ar    1  UNL1       -0.0231
      6 C         138.4588  138.3976  162.8121 C.ar    1  UNL1        0.0323
      7 C         138.1112  139.4362  160.4562 C.3     1  UNL1        0.0261
      8 C         138.6435  139.7798  159.0966 C.3     1  UNL1        0.0050
      9 C         140.0558  139.4284  158.7333 C.3     1  UNL1        0.0052
     10 C         140.5881  139.7720  157.3737 C.3     1  UNL1        0.0159
     11 C         139.9609  140.4508  156.1923 C.3     1  UNL1        0.0844
     12 C         140.9855  140.5190  155.0989 C.3     1  UNL1        0.0735
     13 C         142.2460  139.8822  155.6045 C.2     1  UNL1        0.1503
     14 O         143.5271  139.7333  154.8387 O.2     1  UNL1       -0.2961
     15 C         142.0005  139.4206  157.0104 C.3     1  UNL1        0.0520
     16 C         143.3840  139.1338  156.5069 C.3     1  UNL1        0.0073
     17 C         142.8804  138.7256  158.0067 C.3     1  UNL1        0.0073
     18 C         142.3480  138.3820  159.3664 C.3     1  UNL1        0.0048
     19 C         140.9358  138.7334  159.7296 C.3     1  UNL1        0.0221
     20 C         138.5557  140.9703  156.1175 C.2     1  UNL1        0.2256
     21 O         138.2099  142.2903  156.7404 O.2     1  UNL1       -0.2749
     22 N         137.4963  140.1698  155.4198 N.am    1  UNL1       -0.2795
     23 C         136.0557  140.5584  155.2657 C.3     1  UNL1        0.0935
     24 C         135.3605  139.4689  154.5043 C.3     1  UNL1        0.0233
     25 C         136.3715  138.4068  154.1879 C.3     1  UNL1        0.0233
     26 C         137.6914  138.8400  154.7537 C.3     1  UNL1        0.0935
     27 O         138.8064  137.3591  165.1681 O.3     1  UNL1       -0.4754
     28 C         138.3238  138.4467  166.0814 C.3     1  UNL1        0.2068
     29 C         139.2121  139.6150  166.3915 C.3     1  UNL1        0.0646
     30 C         138.9682  140.9389  165.7299 C.3     1  UNL1        0.0759
     31 C         137.6513  142.4350  163.1460 C.3     1  UNL1        0.0173
     32 C         139.0720  141.9689  163.2656 C.3     1  UNL1        0.0576
     33 C         140.1368  142.1087  162.2183 C.3     1  UNL1        0.0174
     34 C         141.4003  141.5074  162.7588 C.3     1  UNL1        0.0187
     35 C         141.1163  140.9960  164.1400 C.3     1  UNL1        0.0721
     36 N         139.6773  141.2812  164.4532 N.3     1  UNL1       -0.2738
@<TRIPOS>BOND
     1    32    31    1
     2    32    33    1
     3    33    34    1
     4    34    35    1
     5    35    36    1
     6    36    30    1
     7    30    29    1
     8    29    28    1
     9    28    27    1
    10    27     1    1
    11     1     2   ar
    12     2     3   ar
    13     3     4   ar
    14     4     5   ar
    15     5     6   ar
    16     5     7    1
    17     7     8    1
    18     9     8    1
    19     9    10    1
    20    10    11    1
    21    11    20    1
    22    20    21    2
    23    20    22   am
    24    22    23    1
    25    23    24    1
    26    24    25    1
    27    25    26    1
    28    11    12    1
    29    12    13    1
    30    13    14    2
    31    13    15    1
    32    15    16    1
    33    15    17    1
    34    17    18    1
    35    19    18    1
    36    36    32    1
    37     6     1   ar
    38    19     9    1
    39    19     4    1
    40    15    10    1
    41    26    22    1
@<TRIPOS>MOLECULE
*****
 36 41 0 0 0
SMALL
GASTEIGER

@<TRIPOS>ATOM
      1 C         141.5590  140.9695  165.5932 C.ar    1  UNL1        0.1382
      2 C         141.8568  142.4232  165.3746 C.ar    1  UNL1        0.0366
      3 C         141.5952  143.0495  164.0369 C.ar    1  UNL1       -0.0015
      4 C         141.0358  142.2219  162.9179 C.ar    1  UNL1       -0.0263
      5 C         140.7380  140.7682  163.1364 C.ar    1  UNL1       -0.0231
      6 C         140.9996  140.1419  164.4741 C.ar    1  UNL1        0.0323
      7 C         140.1787  139.9407  162.0174 C.3     1  UNL1        0.0261
      8 C         139.9171  140.5669  160.6797 C.3     1  UNL1        0.0050
      9 C         140.2149  142.0208  160.4611 C.3     1  UNL1        0.0052
     10 C         139.9533  142.6470  159.1235 C.3     1  UNL1        0.0159
     11 C         139.4105  142.0873  157.8420 C.3     1  UNL1        0.0844
     12 C         139.3728  143.1951  156.8315 C.3     1  UNL1        0.0735
     13 C         139.8923  144.4396  157.4883 C.2     1  UNL1        0.1503
     14 O         140.0290  145.7863  156.8421 O.2     1  UNL1       -0.2961
     15 C         140.2510  144.1008  158.9048 C.3     1  UNL1        0.0520
     16 C         140.4976  145.5345  158.5392 C.3     1  UNL1        0.0073
     17 C         140.8104  144.9284  160.0239 C.3     1  UNL1        0.0073
     18 C         141.0720  144.3020  161.3616 C.3     1  UNL1        0.0048
     19 C         140.7742  142.8483  161.5802 C.3     1  UNL1        0.0221
     20 C         138.9808  140.6687  157.6116 C.2     1  UNL1        0.2256
     21 O         137.5249  140.3102  157.6514 O.2     1  UNL1       -0.2749
     22 N         140.0071  139.6087  157.3415 N.am    1  UNL1       -0.2795
     23 C         139.7296  138.1556  157.0936 C.3     1  UNL1        0.0935
     24 C         141.0421  137.4644  156.8707 C.3     1  UNL1        0.0233
     25 C         142.1308  138.4905  156.9807 C.3     1  UNL1        0.0233
     26 C         141.4911  139.8157  157.2717 C.3     1  UNL1        0.0935
     27 O         141.8206  140.3431  166.9309 O.3     1  UNL1       -0.4754
     28 C         142.9423  139.3605  167.0924 C.3     1  UNL1        0.2068
     29 C         143.3913  138.5357  165.9227 C.3     1  UNL1        0.0646
     30 C         144.5806  138.9641  165.1153 C.3     1  UNL1        0.0759
     31 C         145.2805  141.9768  164.0747 C.3     1  UNL1        0.0173
     32 C         144.7146  140.8654  163.2413 C.3     1  UNL1        0.0576
     33 C         144.3711  140.9437  161.7833 C.3     1  UNL1        0.0174
     34 C         143.8370  139.6072  161.3605 C.3     1  UNL1        0.0187
     35 C         143.8505  138.7030  162.5572 C.3     1  UNL1        0.0721
     36 N         144.3929  139.4806  163.7196 N.3     1  UNL1       -0.2738
@<TRIPOS>BOND
     1    32    31    1
     2    32    33    1
     3    33    34    1
     4    34    35    1
     5    35    36    1
     6    36    30    1
     7    30    29    1
     8    29    28    1
     9    28    27    1
    10    27     1    1
    11     1     2   ar
    12     2     3   ar
    13     3     4   ar
    14     4     5   ar
    15     5     6   ar
    16     5     7    1
    17     7     8    1
    18     9     8    1
    19     9    10    1
    20    10    11    1
    21    11    20    1
    22    20    21    2
    23    20    22   am
    24    22    23    1
    25    23    24    1
    26    24    25    1
    27    25    26    1
    28    11    12    1
    29    12    13    1
    30    13    14    2
    31    13    15    1
    32    15    16    1
    33    15    17    1
    34    17    18    1
    35    19    18    1
    36    36    32    1
    37     6     1   ar
    38    19     9    1
    39    19     4    1
    40    15    10    1
    41    26    22    1
@<TRIPOS>MOLECULE
*****
 36 41 0 0 0
SMALL
GASTEIGER

@<TRIPOS>ATOM
      1 C         141.4852  138.4552  157.6819 C.ar    1  UNL1        0.1382
      2 C         142.7204  137.8983  158.3254 C.ar    1  UNL1        0.0366
      3 C         142.9121  138.0172  159.8084 C.ar    1  UNL1       -0.0015
      4 C         141.8686  138.6929  160.6477 C.ar    1  UNL1       -0.0263
      5 C         140.6334  139.2498  160.0042 C.ar    1  UNL1       -0.0231
      6 C         140.4417  139.1309  158.5212 C.ar    1  UNL1        0.0323
      7 C         139.5899  139.9255  160.8435 C.3     1  UNL1        0.0261
      8 C         139.7815  140.0443  162.3264 C.3     1  UNL1        0.0050
      9 C         141.0168  139.4874  162.9701 C.3     1  UNL1        0.0052
     10 C         141.2084  139.6063  164.4530 C.3     1  UNL1        0.0159
     11 C         140.3590  140.2146  165.5293 C.3     1  UNL1        0.0844
     12 C         141.0693  140.0337  166.8381 C.3     1  UNL1        0.0735
     13 C         142.3576  139.3136  166.5707 C.2     1  UNL1        0.1503
     14 O         143.3804  138.9257  167.5970 O.2     1  UNL1       -0.2961
     15 C         142.4437  139.0494  165.0966 C.3     1  UNL1        0.0520
     16 C         143.6207  138.5435  165.8768 C.3     1  UNL1        0.0073
     17 C         143.4872  138.3737  164.2573 C.3     1  UNL1        0.0073
     18 C         143.2954  138.2549  162.7743 C.3     1  UNL1        0.0048
     19 C         142.0603  138.8117  162.1307 C.3     1  UNL1        0.0221
     20 C         139.0324  140.8860  165.3315 C.2     1  UNL1        0.2256
     21 O         137.7640  140.0989  165.4791 O.2     1  UNL1       -0.2749
     22 N         138.9739  142.3445  164.9861 N.am    1  UNL1       -0.2795
     23 C         137.7275  143.1477  164.7597 C.3     1  UNL1        0.0935
     24 C         138.1350  144.5556  164.4401 C.3     1  UNL1        0.0233
     25 C         139.6332  144.6223  164.4691 C.3     1  UNL1        0.0233
     26 C         140.1517  143.2558  164.8065 C.3     1  UNL1        0.0935
     27 O         141.2935  138.3364  156.1989 O.3     1  UNL1       -0.4754
     28 C         142.3695  137.7268  155.3500 C.3     1  UNL1        0.2068
     29 C         142.1734  136.3639  154.7549 C.3     1  UNL1        0.0646
     30 C         141.5265  135.2785  155.5633 C.3     1  UNL1        0.0759
     31 C         141.2533  132.0578  155.1142 C.3     1  UNL1        0.0173
     32 C         142.2455  132.7425  156.0068 C.3     1  UNL1        0.0576
     33 C         143.2862  132.0670  156.8498 C.3     1  UNL1        0.0174
     34 C         144.0551  133.1300  157.5772 C.3     1  UNL1        0.0187
     35 C         143.4894  134.4624  157.1838 C.3     1  UNL1        0.0721
     36 N         142.3711  134.2229  156.2132 N.3     1  UNL1       -0.2738
@<TRIPOS>BOND
     1    32    31    1
     2    32    33    1
     3    33    34    1
     4    34    35    1
     5    35    36    1
     6    36    30    1
     7    30    29    1
     8    29    28    1
     9    28    27    1
    10    27     1    1
    11     1     2   ar
    12     2     3   ar
    13     3     4   ar
    14     4     5   ar
    15     5     6   ar
    16     5     7    1
    17     7     8    1
    18     9     8    1
    19     9    10    1
    20    10    11    1
    21    11    20    1
    22    20    21    2
    23    20    22   am
    24    22    23    1
    25    23    24    1
    26    24    25    1
    27    25    26    1
    28    11    12    1
    29    12    13    1
    30    13    14    2
    31    13    15    1
    32    15    16    1
    33    15    17    1
    34    17    18    1
    35    19    18    1
    36    36    32    1
    37     6     1   ar
    38    19     9    1
    39    19     4    1
    40    15    10    1
    41    26    22    1
