@<TRIPOS>MOLECULE
*****
 35 39 0 0 0
SMALL
GASTEIGER

@<TRIPOS>ATOM
      1 C         139.9757  141.2042  165.6496 C.ar    1  UNL1        0.0907
      2 C         140.4494  141.9882  166.8375 C.ar    1  UNL1        0.1539
      3 O         140.0944  143.4283  166.6138 O.2     1  UNL1       -0.4532
      4 C         139.4013  143.5344  165.2878 C.ar    1  UNL1        0.1454
      5 C         138.8275  144.7050  164.5459 C.ar    1  UNL1        0.0406
      6 C         138.1803  144.5010  163.2082 C.ar    1  UNL1        0.0395
      7 C         138.1070  143.1264  162.6123 C.ar    1  UNL1        0.1311
      8 O         137.4598  142.9225  161.2745 O.3     1  UNL1       -0.5058
      9 C         138.6807  141.9558  163.3542 C.ar    1  UNL1        0.0308
     10 C         139.3279  142.1598  164.6919 C.ar    1  UNL1        0.0421
     11 H         137.1013  143.6538  160.8111 H       1  UNL1        0.2922
     12 C         141.1543  141.4300  168.0381 C.ar    1  UNL1        0.0897
     13 C         140.4447  140.4687  168.9449 C.ar    1  UNL1        0.1482
     14 F         139.0300  140.0655  168.6510 F       1  UNL1       -0.2039
     15 C         141.1496  139.9106  170.1455 C.ar    1  UNL1        0.0665
     16 C         142.5642  140.3138  170.4394 C.ar    1  UNL1        0.1382
     17 O         143.2691  139.7557  171.6401 O.3     1  UNL1       -0.5054
     18 C         143.2738  141.2751  169.5327 C.ar    1  UNL1        0.0665
     19 C         142.5689  141.8332  168.3320 C.ar    1  UNL1        0.1482
     20 F         143.3370  142.6822  167.6166 F       1  UNL1       -0.2039
     21 H         142.8258  139.1552  172.2065 H       1  UNL1        0.2922
     22 C         141.5378  137.6877  164.6778 C.3     1  UNL1        0.1109
     23 N         141.3897  139.1675  164.8735 N.am    1  UNL1       -0.2991
     24 C         140.1237  139.7244  165.4539 C.2     1  UNL1        0.2490
     25 O         139.2144  138.7709  165.7484 O.2     1  UNL1       -0.2700
     26 H         142.1236  139.7733  164.6210 H       1  UNL1        0.1498
     27 C         138.6074  140.5812  162.7583 C.3     1  UNL1        0.1023
     28 N         139.7978  140.0065  162.0494 N.3     1  UNL1       -0.2687
     29 C         139.9306  138.5991  161.5477 C.3     1  UNL1        0.0726
     30 C         141.2794  138.4610  160.9060 C.3     1  UNL1        0.0235
     31 C         141.9802  139.7831  161.0110 C.3     1  UNL1        0.0707
     32 C         142.8585  140.9990  161.0039 C.3     1  UNL1        0.1458
     33 O         143.9247  140.2246  160.2873 O.3     1  UNL1       -0.3535
     34 C         143.0463  139.0087  160.2945 C.3     1  UNL1        0.1458
     35 C         141.0645  140.7383  161.7177 C.3     1  UNL1        0.0772
@<TRIPOS>BOND
     1    22    23    1
     2    23    24   am
     3    24    25    2
     4    24     1    1
     5     1     2   ar
     6     2    12    1
     7    12    13   ar
     8    13    14    1
     9    13    15   ar
    10    15    16   ar
    11    16    17    1
    12    16    18   ar
    13    18    19   ar
    14    19    20    1
    15     2     3   ar
    16     3     4   ar
    17     4     5   ar
    18     5     6   ar
    19     6     7   ar
    20     7     8    1
    21     7     9   ar
    22     9    27    1
    23    27    28    1
    24    28    29    1
    25    29    30    1
    26    30    31    1
    27    31    32    1
    28    32    33    1
    29    33    34    1
    30    31    35    1
    31     9    10   ar
    32    10     1   ar
    33    19    12   ar
    34    10     4   ar
    35    35    28    1
    36    34    31    1
    37    23    26    1
    38    17    21    1
    39     8    11    1
@<TRIPOS>MOLECULE
*****
 35 39 0 0 0
SMALL
GASTEIGER

@<TRIPOS>ATOM
      1 C         140.2809  141.2522  165.4270 C.ar    1  UNL1        0.0907
      2 C         140.5249  141.9214  166.7471 C.ar    1  UNL1        0.1539
      3 O         139.8794  143.2747  166.7070 O.2     1  UNL1       -0.4532
      4 C         139.2364  143.4420  165.3621 C.ar    1  UNL1        0.1454
      5 C         138.4570  144.5710  164.7557 C.ar    1  UNL1        0.0406
      6 C         137.9257  144.4499  163.3581 C.ar    1  UNL1        0.0395
      7 C         138.1739  143.1999  162.5671 C.ar    1  UNL1        0.1311
      8 O         137.6427  143.0789  161.1695 O.3     1  UNL1       -0.5058
      9 C         138.9533  142.0709  163.1735 C.ar    1  UNL1        0.0308
     10 C         139.4846  142.1919  164.5710 C.ar    1  UNL1        0.0421
     11 H         137.1558  143.7842  160.7906 H       1  UNL1        0.2922
     12 C         141.2816  141.3394  167.9041 C.ar    1  UNL1        0.0897
     13 C         142.6541  141.8468  168.2341 C.ar    1  UNL1        0.1482
     14 F         143.2699  142.9363  167.4070 F       1  UNL1       -0.2039
     15 C         143.4108  141.2648  169.3911 C.ar    1  UNL1        0.0665
     16 C         142.7951  140.1754  170.2181 C.ar    1  UNL1        0.1382
     17 O         143.5518  139.5935  171.3752 O.3     1  UNL1       -0.5054
     18 C         141.4226  139.6680  169.8882 C.ar    1  UNL1        0.0665
     19 C         140.6659  140.2500  168.7311 C.ar    1  UNL1        0.1482
     20 F         139.4488  139.6908  168.5620 F       1  UNL1       -0.2039
     21 H         144.4091  139.9105  171.5813 H       1  UNL1        0.2922
     22 C         142.5198  138.3497  163.9059 C.3     1  UNL1        0.1109
     23 N         142.0499  139.7184  164.3008 N.am    1  UNL1       -0.2991
     24 C         140.7508  139.8835  165.0321 C.2     1  UNL1        0.2490
     25 O         140.1220  138.7110  165.2615 O.2     1  UNL1       -0.2700
     26 H         142.5942  140.5085  164.0798 H       1  UNL1        0.1498
     27 C         139.2015  140.8208  162.3824 C.3     1  UNL1        0.1023
     28 N         140.4665  140.6735  161.5900 N.3     1  UNL1       -0.2687
     29 C         141.5303  141.7182  161.4249 C.3     1  UNL1        0.0726
     30 C         142.6111  141.1461  160.5563 C.3     1  UNL1        0.0235
     31 C         142.2155  139.7477  160.1846 C.3     1  UNL1        0.0707
     32 C         142.0225  138.3436  159.6935 C.3     1  UNL1        0.1458
     33 O         143.3339  138.4168  158.9689 O.3     1  UNL1       -0.3535
     34 C         143.5267  139.8210  159.4601 C.3     1  UNL1        0.1458
     35 C         140.8900  139.4557  160.8234 C.3     1  UNL1        0.0772
@<TRIPOS>BOND
     1    22    23    1
     2    23    24   am
     3    24    25    2
     4    24     1    1
     5     1     2   ar
     6     2    12    1
     7    12    13   ar
     8    13    14    1
     9    13    15   ar
    10    15    16   ar
    11    16    17    1
    12    16    18   ar
    13    18    19   ar
    14    19    20    1
    15     2     3   ar
    16     3     4   ar
    17     4     5   ar
    18     5     6   ar
    19     6     7   ar
    20     7     8    1
    21     7     9   ar
    22     9    27    1
    23    27    28    1
    24    28    29    1
    25    29    30    1
    26    30    31    1
    27    31    32    1
    28    32    33    1
    29    33    34    1
    30    31    35    1
    31     9    10   ar
    32    10     1   ar
    33    19    12   ar
    34    10     4   ar
    35    35    28    1
    36    34    31    1
    37    23    26    1
    38    17    21    1
    39     8    11    1
@<TRIPOS>MOLECULE
*****
 35 39 0 0 0
SMALL
GASTEIGER

@<TRIPOS>ATOM
      1 C         141.4824  142.7625  165.5068 C.ar    1  UNL1        0.0907
      2 C         140.3786  142.8260  166.5206 C.ar    1  UNL1        0.1539
      3 O         139.3173  143.7454  165.9931 O.2     1  UNL1       -0.4532
      4 C         139.7650  144.2500  164.6534 C.ar    1  UNL1        0.1454
      5 C         139.1272  145.1842  163.6684 C.ar    1  UNL1        0.0406
      6 C         139.8275  145.5110  162.3828 C.ar    1  UNL1        0.0395
      7 C         141.1656  144.9035  162.0822 C.ar    1  UNL1        0.1311
      8 O         141.8659  145.2303  160.7966 O.3     1  UNL1       -0.5058
      9 C         141.8035  143.9693  163.0673 C.ar    1  UNL1        0.0308
     10 C         141.1032  143.6426  164.3529 C.ar    1  UNL1        0.0421
     11 H         141.4675  145.8138  160.1812 H       1  UNL1        0.2922
     12 C         140.3426  142.0980  167.8316 C.ar    1  UNL1        0.0897
     13 C         140.3059  142.8697  169.1172 C.ar    1  UNL1        0.1482
     14 F         140.3052  144.3695  169.0920 F       1  UNL1       -0.2039
     15 C         140.2698  142.1417  170.4282 C.ar    1  UNL1        0.0665
     16 C         140.2705  140.6419  170.4535 C.ar    1  UNL1        0.1382
     17 O         140.2344  139.9139  171.7645 O.3     1  UNL1       -0.5054
     18 C         140.3072  139.8702  169.1679 C.ar    1  UNL1        0.0665
     19 C         140.3432  140.5982  167.8569 C.ar    1  UNL1        0.1482
     20 F         140.3738  139.7677  166.7930 F       1  UNL1       -0.2039
     21 H         140.2115  140.3960  172.5677 H       1  UNL1        0.2922
     22 C         144.0676  139.7692  165.1799 C.3     1  UNL1        0.1109
     23 N         142.8061  140.5719  165.0607 N.am    1  UNL1       -0.2991
     24 C         142.7439  141.9597  165.6261 C.2     1  UNL1        0.2490
     25 O         143.8992  142.3438  166.2095 O.2     1  UNL1       -0.2700
     26 H         142.0189  140.1877  164.6113 H       1  UNL1        0.1498
     27 C         143.1416  143.3618  162.7667 C.3     1  UNL1        0.1023
     28 N         143.2242  141.9981  162.1475 N.3     1  UNL1       -0.2687
     29 C         144.4838  141.2404  161.8483 C.3     1  UNL1        0.0726
     30 C         144.0998  139.9267  161.2345 C.3     1  UNL1        0.0235
     31 C         142.6028  139.8724  161.1544 C.3     1  UNL1        0.0707
     32 C         141.1373  139.6055  160.9784 C.3     1  UNL1        0.1458
     33 O         141.4530  138.2671  160.3793 O.3     1  UNL1       -0.3535
     34 C         142.9186  138.5340  160.5553 C.3     1  UNL1        0.1458
     35 C         142.0617  141.1526  161.7187 C.3     1  UNL1        0.0772
@<TRIPOS>BOND
     1    22    23    1
     2    23    24   am
     3    24    25    2
     4    24     1    1
     5     1     2   ar
     6     2    12    1
     7    12    13   ar
     8    13    14    1
     9    13    15   ar
    10    15    16   ar
    11    16    17    1
    12    16    18   ar
    13    18    19   ar
    14    19    20    1
    15     2     3   ar
    16     3     4   ar
    17     4     5   ar
    18     5     6   ar
    19     6     7   ar
    20     7     8    1
    21     7     9   ar
    22     9    27    1
    23    27    28    1
    24    28    29    1
    25    29    30    1
    26    30    31    1
    27    31    32    1
    28    32    33    1
    29    33    34    1
    30    31    35    1
    31     9    10   ar
    32    10     1   ar
    33    19    12   ar
    34    10     4   ar
    35    35    28    1
    36    34    31    1
    37    23    26    1
    38    17    21    1
    39     8    11    1
@<TRIPOS>MOLECULE
*****
 35 39 0 0 0
SMALL
GASTEIGER

@<TRIPOS>ATOM
      1 C         141.5400  140.4239  165.3511 C.ar    1  UNL1        0.0907
      2 C         140.9010  140.1631  166.6828 C.ar    1  UNL1        0.1539
      3 O         139.7982  139.1666  166.4806 O.2     1  UNL1       -0.4532
      4 C         139.7557  138.8115  165.0239 C.ar    1  UNL1        0.1454
      5 C         138.8759  137.8809  164.2429 C.ar    1  UNL1        0.0406
      6 C         139.0726  137.7274  162.7639 C.ar    1  UNL1        0.0395
      7 C         140.1490  138.5045  162.0657 C.ar    1  UNL1        0.1311
      8 O         140.3457  138.3510  160.5866 O.3     1  UNL1       -0.5058
      9 C         141.0289  139.4350  162.8467 C.ar    1  UNL1        0.0308
     10 C         140.8322  139.5885  164.3258 C.ar    1  UNL1        0.0421
     11 H         139.7961  137.7697  160.0987 H       1  UNL1        0.2922
     12 C         141.2954  140.7890  167.9877 C.ar    1  UNL1        0.0897
     13 C         140.8928  142.2010  168.2943 C.ar    1  UNL1        0.1482
     14 F         140.0956  142.9873  167.2960 F       1  UNL1       -0.2039
     15 C         141.2872  142.8269  169.5992 C.ar    1  UNL1        0.0665
     16 C         142.0843  142.0408  170.5975 C.ar    1  UNL1        0.1382
     17 O         142.4787  142.6667  171.9023 O.3     1  UNL1       -0.5054
     18 C         142.4869  140.6288  170.2909 C.ar    1  UNL1        0.0665
     19 C         142.0925  140.0029  168.9860 C.ar    1  UNL1        0.1482
     20 F         142.5277  138.7314  168.8580 F       1  UNL1       -0.2039
     21 H         142.2272  143.5487  172.0938 H       1  UNL1        0.2922
     22 C         143.5710  143.7435  164.5732 C.3     1  UNL1        0.1109
     23 N         142.4253  142.8111  164.8339 N.am    1  UNL1       -0.2991
     24 C         142.6857  141.3563  165.0903 C.2     1  UNL1        0.2490
     25 O         143.9979  141.0409  165.0536 O.2     1  UNL1       -0.2700
     26 H         141.5025  143.1540  164.8368 H       1  UNL1        0.1498
     27 C         142.1053  140.2121  162.1486 C.3     1  UNL1        0.1023
     28 N         141.8672  141.6414  161.7608 N.3     1  UNL1       -0.2687
     29 C         142.8775  142.5711  161.1566 C.3     1  UNL1        0.0726
     30 C         142.2117  143.8963  160.9315 C.3     1  UNL1        0.0235
     31 C         140.7898  143.7856  161.3965 C.3     1  UNL1        0.0707
     32 C         139.3483  143.8997  161.7951 C.3     1  UNL1        0.1458
     33 O         139.3355  145.3288  161.3393 O.3     1  UNL1       -0.3535
     34 C         140.7770  145.2145  160.9407 C.3     1  UNL1        0.1458
     35 C         140.5769  142.3919  161.9090 C.3     1  UNL1        0.0772
@<TRIPOS>BOND
     1    22    23    1
     2    23    24   am
     3    24    25    2
     4    24     1    1
     5     1     2   ar
     6     2    12    1
     7    12    13   ar
     8    13    14    1
     9    13    15   ar
    10    15    16   ar
    11    16    17    1
    12    16    18   ar
    13    18    19   ar
    14    19    20    1
    15     2     3   ar
    16     3     4   ar
    17     4     5   ar
    18     5     6   ar
    19     6     7   ar
    20     7     8    1
    21     7     9   ar
    22     9    27    1
    23    27    28    1
    24    28    29    1
    25    29    30    1
    26    30    31    1
    27    31    32    1
    28    32    33    1
    29    33    34    1
    30    31    35    1
    31     9    10   ar
    32    10     1   ar
    33    19    12   ar
    34    10     4   ar
    35    35    28    1
    36    34    31    1
    37    23    26    1
    38    17    21    1
    39     8    11    1
@<TRIPOS>MOLECULE
*****
 35 39 0 0 0
SMALL
GASTEIGER

@<TRIPOS>ATOM
      1 C         141.2418  142.4358  165.5795 C.ar    1  UNL1        0.0907
      2 C         142.0820  142.3414  166.8186 C.ar    1  UNL1        0.1539
      3 O         143.4381  142.8993  166.5026 O.2     1  UNL1       -0.4532
      4 C         143.4360  143.3384  165.0683 C.ar    1  UNL1        0.1454
      5 C         144.4947  143.9621  164.2081 C.ar    1  UNL1        0.0406
      6 C         144.1961  144.2993  162.7773 C.ar    1  UNL1        0.0395
      7 C         142.8387  144.0128  162.2068 C.ar    1  UNL1        0.1311
      8 O         142.5401  144.3501  160.7760 O.3     1  UNL1       -0.5058
      9 C         141.7800  143.3891  163.0671 C.ar    1  UNL1        0.0308
     10 C         142.0786  143.0519  164.4978 C.ar    1  UNL1        0.0421
     11 H         143.2015  144.7397  160.2386 H       1  UNL1        0.2922
     12 C         141.6431  141.7866  168.1413 C.ar    1  UNL1        0.0897
     13 C         142.1401  140.4459  168.5944 C.ar    1  UNL1        0.1482
     14 F         143.0761  139.6598  167.7247 F       1  UNL1       -0.2039
     15 C         141.7013  139.8911  169.9171 C.ar    1  UNL1        0.0665
     16 C         140.7654  140.6771  170.7868 C.ar    1  UNL1        0.1382
     17 O         140.3266  140.1223  172.1095 O.3     1  UNL1       -0.5054
     18 C         140.2684  142.0178  170.3337 C.ar    1  UNL1        0.0665
     19 C         140.7073  142.5726  169.0109 C.ar    1  UNL1        0.1482
     20 F         140.1762  143.7850  168.7451 F       1  UNL1       -0.2039
     21 H         140.6370  139.2847  172.3925 H       1  UNL1        0.2922
     22 C         138.0588  140.0853  165.2725 C.3     1  UNL1        0.1109
     23 N         139.4854  140.5292  165.4063 N.am    1  UNL1       -0.2991
     24 C         139.8153  141.9919  165.4457 C.2     1  UNL1        0.2490
     25 O         138.7242  142.7813  165.3502 O.2     1  UNL1       -0.2700
     26 H         140.2052  139.8605  165.4684 H       1  UNL1        0.1498
     27 C         140.4226  143.1027  162.4966 C.3     1  UNL1        0.1023
     28 N         140.0174  141.6896  162.1982 N.3     1  UNL1       -0.2687
     29 C         138.6425  141.2291  161.8139 C.3     1  UNL1        0.0726
     30 C         138.6913  139.7438  161.6099 C.3     1  UNL1        0.0235
     31 C         140.0963  139.2863  161.8683 C.3     1  UNL1        0.0707
     32 C         141.4206  138.6135  162.0767 C.3     1  UNL1        0.1458
     33 O         140.8006  137.2893  161.7417 O.3     1  UNL1       -0.3535
     34 C         139.4763  137.9623  161.5332 C.3     1  UNL1        0.1458
     35 C         140.9159  140.4889  162.2319 C.3     1  UNL1        0.0772
@<TRIPOS>BOND
     1    22    23    1
     2    23    24   am
     3    24    25    2
     4    24     1    1
     5     1     2   ar
     6     2    12    1
     7    12    13   ar
     8    13    14    1
     9    13    15   ar
    10    15    16   ar
    11    16    17    1
    12    16    18   ar
    13    18    19   ar
    14    19    20    1
    15     2     3   ar
    16     3     4   ar
    17     4     5   ar
    18     5     6   ar
    19     6     7   ar
    20     7     8    1
    21     7     9   ar
    22     9    27    1
    23    27    28    1
    24    28    29    1
    25    29    30    1
    26    30    31    1
    27    31    32    1
    28    32    33    1
    29    33    34    1
    30    31    35    1
    31     9    10   ar
    32    10     1   ar
    33    19    12   ar
    34    10     4   ar
    35    35    28    1
    36    34    31    1
    37    23    26    1
    38    17    21    1
    39     8    11    1
@<TRIPOS>MOLECULE
*****
 35 39 0 0 0
SMALL
GASTEIGER

@<TRIPOS>ATOM
      1 C         140.0336  141.3110  165.3394 C.ar    1  UNL1        0.0907
      2 C         140.5620  140.6409  166.5730 C.ar    1  UNL1        0.1539
      3 O         140.3234  139.1662  166.4378 O.2     1  UNL1       -0.4532
      4 C         139.6474  138.9249  165.1206 C.ar    1  UNL1        0.1454
      5 C         139.1719  137.6694  164.4517 C.ar    1  UNL1        0.0406
      6 C         138.5172  137.7394  163.1040 C.ar    1  UNL1        0.0395
      7 C         138.3381  139.0650  162.4251 C.ar    1  UNL1        0.1311
      8 O         137.6834  139.1350  161.0773 O.3     1  UNL1       -0.5058
      9 C         138.8137  140.3205  163.0940 C.ar    1  UNL1        0.0308
     10 C         139.4683  140.2504  164.4418 C.ar    1  UNL1        0.0421
     11 H         137.3864  138.3507  160.6595 H       1  UNL1        0.2922
     12 C         141.2146  141.3254  167.7374 C.ar    1  UNL1        0.0897
     13 C         142.6274  141.8161  167.6233 C.ar    1  UNL1        0.1482
     14 F         143.3878  141.6224  166.3448 F       1  UNL1       -0.2039
     15 C         143.2800  142.5005  168.7877 C.ar    1  UNL1        0.0665
     16 C         142.5197  142.6943  170.0661 C.ar    1  UNL1        0.1382
     17 O         143.1722  143.3787  171.2304 O.3     1  UNL1       -0.5054
     18 C         141.1068  142.2036  170.1801 C.ar    1  UNL1        0.0665
     19 C         140.4543  141.5191  169.0158 C.ar    1  UNL1        0.1482
     20 F         139.1854  141.1364  169.2724 F       1  UNL1       -0.2039
     21 H         144.0548  143.6853  171.1592 H       1  UNL1        0.2922
     22 C         141.2546  144.8505  164.0237 C.3     1  UNL1        0.1109
     23 N         141.2233  143.3783  164.3095 N.am    1  UNL1       -0.2991
     24 C         140.0649  142.7832  165.0536 C.2     1  UNL1        0.2490
     25 O         139.1332  143.6977  165.3977 O.2     1  UNL1       -0.2700
     26 H         141.9632  142.8026  164.0087 H       1  UNL1        0.1498
     27 C         138.6346  141.6460  162.4152 C.3     1  UNL1        0.1023
     28 N         139.7366  142.2098  161.5681 N.3     1  UNL1       -0.2687
     29 C         140.9840  141.4891  161.1499 C.3     1  UNL1        0.0726
     30 C         141.8030  142.4271  160.3137 C.3     1  UNL1        0.0235
     31 C         141.0619  143.7276  160.2150 C.3     1  UNL1        0.0707
     32 C         140.5023  145.1001  159.9850 C.3     1  UNL1        0.1458
     33 O         141.7067  145.4535  159.1637 O.3     1  UNL1       -0.3535
     34 C         142.2663  144.0809  159.3937 C.3     1  UNL1        0.1458
     35 C         139.7847  143.5932  160.9902 C.3     1  UNL1        0.0772
@<TRIPOS>BOND
     1    22    23    1
     2    23    24   am
     3    24    25    2
     4    24     1    1
     5     1     2   ar
     6     2    12    1
     7    12    13   ar
     8    13    14    1
     9    13    15   ar
    10    15    16   ar
    11    16    17    1
    12    16    18   ar
    13    18    19   ar
    14    19    20    1
    15     2     3   ar
    16     3     4   ar
    17     4     5   ar
    18     5     6   ar
    19     6     7   ar
    20     7     8    1
    21     7     9   ar
    22     9    27    1
    23    27    28    1
    24    28    29    1
    25    29    30    1
    26    30    31    1
    27    31    32    1
    28    32    33    1
    29    33    34    1
    30    31    35    1
    31     9    10   ar
    32    10     1   ar
    33    19    12   ar
    34    10     4   ar
    35    35    28    1
    36    34    31    1
    37    23    26    1
    38    17    21    1
    39     8    11    1
@<TRIPOS>MOLECULE
*****
 35 39 0 0 0
SMALL
GASTEIGER

@<TRIPOS>ATOM
      1 C         142.7877  140.9410  165.3955 C.ar    1  UNL1        0.0907
      2 C         142.2684  141.7209  166.5668 C.ar    1  UNL1        0.1539
      3 O         142.5240  143.1756  166.3050 O.2     1  UNL1       -0.4532
      4 C         143.2013  143.2947  164.9719 C.ar    1  UNL1        0.1454
      5 C         143.6907  144.4823  164.1973 C.ar    1  UNL1        0.0406
      6 C         144.3431  144.2887  162.8606 C.ar    1  UNL1        0.0395
      7 C         144.5061  142.9076  162.2985 C.ar    1  UNL1        0.1311
      8 O         145.1585  142.7141  160.9617 O.3     1  UNL1       -0.5058
      9 C         144.0167  141.7200  163.0731 C.ar    1  UNL1        0.0308
     10 C         143.3643  141.9136  164.4098 C.ar    1  UNL1        0.0421
     11 H         145.4642  143.4560  160.4778 H       1  UNL1        0.2922
     12 C         141.6091  141.1470  167.7858 C.ar    1  UNL1        0.0897
     13 C         142.3407  141.1275  169.0951 C.ar    1  UNL1        0.1482
     14 F         143.7316  141.6819  169.1855 F       1  UNL1       -0.2039
     15 C         141.6815  140.5535  170.3142 C.ar    1  UNL1        0.0665
     16 C         140.2907  139.9991  170.2239 C.ar    1  UNL1        0.1382
     17 O         139.6315  139.4252  171.4429 O.3     1  UNL1       -0.5054
     18 C         139.5591  140.0186  168.9146 C.ar    1  UNL1        0.0665
     19 C         140.2183  140.5926  167.6955 C.ar    1  UNL1        0.1482
     20 F         139.4350  140.5385  166.5974 F       1  UNL1       -0.2039
     21 H         140.0885  139.4130  172.2608 H       1  UNL1        0.2922
     22 C         141.4911  137.3099  164.4553 C.3     1  UNL1        0.1109
     23 N         141.5398  138.8007  164.6132 N.am    1  UNL1       -0.2991
     24 C         142.7391  139.4501  165.2376 C.2     1  UNL1        0.2490
     25 O         143.6880  138.5627  165.6048 O.2     1  UNL1       -0.2700
     26 H         140.7845  139.3531  164.3070 H       1  UNL1        0.1498
     27 C         144.1797  140.3389  162.5110 C.3     1  UNL1        0.1023
     28 N         143.0557  139.7018  161.7491 N.3     1  UNL1       -0.2687
     29 C         143.0275  138.2939  161.2322 C.3     1  UNL1        0.0726
     30 C         141.7169  138.0826  160.5339 C.3     1  UNL1        0.0235
     31 C         140.9350  139.3599  160.6192 C.3     1  UNL1        0.0707
     32 C         139.9870  140.5218  160.5843 C.3     1  UNL1        0.1458
     33 O         138.9990  139.6926  159.8184 O.3     1  UNL1       -0.3535
     34 C         139.9472  138.5308  159.8533 C.3     1  UNL1        0.1458
     35 C         141.7625  140.3606  161.3702 C.3     1  UNL1        0.0772
@<TRIPOS>BOND
     1    22    23    1
     2    23    24   am
     3    24    25    2
     4    24     1    1
     5     1     2   ar
     6     2    12    1
     7    12    13   ar
     8    13    14    1
     9    13    15   ar
    10    15    16   ar
    11    16    17    1
    12    16    18   ar
    13    18    19   ar
    14    19    20    1
    15     2     3   ar
    16     3     4   ar
    17     4     5   ar
    18     5     6   ar
    19     6     7   ar
    20     7     8    1
    21     7     9   ar
    22     9    27    1
    23    27    28    1
    24    28    29    1
    25    29    30    1
    26    30    31    1
    27    31    32    1
    28    32    33    1
    29    33    34    1
    30    31    35    1
    31     9    10   ar
    32    10     1   ar
    33    19    12   ar
    34    10     4   ar
    35    35    28    1
    36    34    31    1
    37    23    26    1
    38    17    21    1
    39     8    11    1
@<TRIPOS>MOLECULE
*****
 35 39 0 0 0
SMALL
GASTEIGER

@<TRIPOS>ATOM
      1 C         141.1646  142.2896  165.3739 C.ar    1  UNL1        0.0907
      2 C         141.9559  142.1814  166.6436 C.ar    1  UNL1        0.1539
      3 O         143.3029  142.7964  166.4041 O.2     1  UNL1       -0.4532
      4 C         143.3441  143.2847  164.9864 C.ar    1  UNL1        0.1454
      5 C         144.4142  143.9740  164.1929 C.ar    1  UNL1        0.0406
      6 C         144.1627  144.3501  162.7628 C.ar    1  UNL1        0.0395
      7 C         142.8412  144.0369  162.1261 C.ar    1  UNL1        0.1311
      8 O         142.5897  144.4131  160.6959 O.3     1  UNL1       -0.5058
      9 C         141.7710  143.3476  162.9196 C.ar    1  UNL1        0.0308
     10 C         142.0225  142.9715  164.3497 C.ar    1  UNL1        0.0421
     11 H         143.2582  144.8437  160.2003 H       1  UNL1        0.2922
     12 C         141.4832  141.5663  167.9274 C.ar    1  UNL1        0.0897
     13 C         140.5238  142.3112  168.8074 C.ar    1  UNL1        0.1482
     14 F         140.0369  143.6714  168.4036 F       1  UNL1       -0.2039
     15 C         140.0511  141.6961  170.0912 C.ar    1  UNL1        0.0665
     16 C         140.5379  140.3360  170.4951 C.ar    1  UNL1        0.1382
     17 O         140.0652  139.7208  171.7789 O.3     1  UNL1       -0.5054
     18 C         141.4973  139.5910  169.6151 C.ar    1  UNL1        0.0665
     19 C         141.9700  140.2062  168.3313 C.ar    1  UNL1        0.1482
     20 F         142.8280  139.4156  167.6520 F       1  UNL1       -0.2039
     21 H         139.4658  140.1862  172.3286 H       1  UNL1        0.2922
     22 C         138.1000  139.8567  164.7113 C.3     1  UNL1        0.1109
     23 N         139.5029  140.3447  164.9202 N.am    1  UNL1       -0.2991
     24 C         139.7616  141.8016  165.1651 C.2     1  UNL1        0.2490
     25 O         138.6341  142.5442  165.1687 O.2     1  UNL1       -0.2700
     26 H         140.2540  139.7086  164.8964 H       1  UNL1        0.1498
     27 C         140.4495  143.0344  162.2829 C.3     1  UNL1        0.1023
     28 N         140.3016  141.8141  161.4233 N.3     1  UNL1       -0.2687
     29 C         141.0523  140.5255  161.5847 C.3     1  UNL1        0.0726
     30 C         140.5917  139.5831  160.5125 C.3     1  UNL1        0.0235
     31 C         139.5563  140.2893  159.6882 C.3     1  UNL1        0.0707
     32 C         138.5105  140.7959  158.7397 C.3     1  UNL1        0.1458
     33 O         138.5264  139.4801  158.0195 O.3     1  UNL1       -0.3535
     34 C         139.5722  138.9736  158.9681 C.3     1  UNL1        0.1458
     35 C         139.3770  141.6681  160.2511 C.3     1  UNL1        0.0772
@<TRIPOS>BOND
     1    22    23    1
     2    23    24   am
     3    24    25    2
     4    24     1    1
     5     1     2   ar
     6     2    12    1
     7    12    13   ar
     8    13    14    1
     9    13    15   ar
    10    15    16   ar
    11    16    17    1
    12    16    18   ar
    13    18    19   ar
    14    19    20    1
    15     2     3   ar
    16     3     4   ar
    17     4     5   ar
    18     5     6   ar
    19     6     7   ar
    20     7     8    1
    21     7     9   ar
    22     9    27    1
    23    27    28    1
    24    28    29    1
    25    29    30    1
    26    30    31    1
    27    31    32    1
    28    32    33    1
    29    33    34    1
    30    31    35    1
    31     9    10   ar
    32    10     1   ar
    33    19    12   ar
    34    10     4   ar
    35    35    28    1
    36    34    31    1
    37    23    26    1
    38    17    21    1
    39     8    11    1
@<TRIPOS>MOLECULE
*****
 35 39 0 0 0
SMALL
GASTEIGER

@<TRIPOS>ATOM
      1 C         141.3344  140.4965  163.4300 C.ar    1  UNL1        0.0907
      2 C         141.3152  139.9204  164.8148 C.ar    1  UNL1        0.1539
      3 O         142.6877  140.0745  165.4000 O.2     1  UNL1       -0.4532
      4 C         143.5551  140.7460  164.3769 C.ar    1  UNL1        0.1454
      5 C         144.9985  141.1535  164.3967 C.ar    1  UNL1        0.0406
      6 C         145.6056  141.8219  163.1989 C.ar    1  UNL1        0.0395
      7 C         144.7692  142.0827  161.9814 C.ar    1  UNL1        0.1311
      8 O         145.3763  142.7511  160.7835 O.3     1  UNL1       -0.5058
      9 C         143.3258  141.6751  161.9616 C.ar    1  UNL1        0.0308
     10 C         142.7188  141.0068  163.1594 C.ar    1  UNL1        0.0421
     11 H         146.2779  143.0057  160.7959 H       1  UNL1        0.2922
     12 C         140.1313  139.2992  165.4950 C.ar    1  UNL1        0.0897
     13 C         139.5076  139.9745  166.6802 C.ar    1  UNL1        0.1482
     14 F         140.0676  141.2712  167.1852 F       1  UNL1       -0.2039
     15 C         138.3237  139.3533  167.3603 C.ar    1  UNL1        0.0665
     16 C         137.7637  138.0567  166.8553 C.ar    1  UNL1        0.1382
     17 O         136.5798  137.4355  167.5354 O.3     1  UNL1       -0.5054
     18 C         138.3874  137.3813  165.6701 C.ar    1  UNL1        0.0665
     19 C         139.5713  138.0025  164.9899 C.ar    1  UNL1        0.1482
     20 F         140.0181  137.2778  163.9423 F       1  UNL1       -0.2039
     21 H         136.1902  137.8574  168.2758 H       1  UNL1        0.2922
     22 C         138.1176  141.8127  161.5143 C.3     1  UNL1        0.1109
     23 N         139.2789  141.7566  162.4621 N.am    1  UNL1       -0.2991
     24 C         140.1732  140.5526  162.4822 C.2     1  UNL1        0.2490
     25 O         139.8044  139.6068  161.5921 O.2     1  UNL1       -0.2700
     26 H         139.4541  142.5101  163.0710 H       1  UNL1        0.1498
     27 C         142.4894  141.9359  160.7440 C.3     1  UNL1        0.1023
     28 N         142.7260  141.1493  159.4890 N.3     1  UNL1       -0.2687
     29 C         143.0231  141.7195  158.1337 C.3     1  UNL1        0.0726
     30 C         143.1878  140.5770  157.1760 C.3     1  UNL1        0.0235
     31 C         142.9925  139.3005  157.9392 C.3     1  UNL1        0.0707
     32 C         142.8366  137.9167  158.4968 C.3     1  UNL1        0.1458
     33 O         143.1009  137.3394  157.1377 O.3     1  UNL1       -0.3535
     34 C         143.2568  138.7232  156.5803 C.3     1  UNL1        0.1458
     35 C         142.7071  139.6542  159.3688 C.3     1  UNL1        0.0772
@<TRIPOS>BOND
     1    22    23    1
     2    23    24   am
     3    24    25    2
     4    24     1    1
     5     1     2   ar
     6     2    12    1
     7    12    13   ar
     8    13    14    1
     9    13    15   ar
    10    15    16   ar
    11    16    17    1
    12    16    18   ar
    13    18    19   ar
    14    19    20    1
    15     2     3   ar
    16     3     4   ar
    17     4     5   ar
    18     5     6   ar
    19     6     7   ar
    20     7     8    1
    21     7     9   ar
    22     9    27    1
    23    27    28    1
    24    28    29    1
    25    29    30    1
    26    30    31    1
    27    31    32    1
    28    32    33    1
    29    33    34    1
    30    31    35    1
    31     9    10   ar
    32    10     1   ar
    33    19    12   ar
    34    10     4   ar
    35    35    28    1
    36    34    31    1
    37    23    26    1
    38    17    21    1
    39     8    11    1
