@<TRIPOS>MOLECULE
*****
 43 48 0 0 0
SMALL
GASTEIGER

@<TRIPOS>ATOM
      1 C         138.9136  141.7034  159.6386 C.3     1  UNL1        0.0546
      2 C         138.4455  140.3376  159.2320 C.3     1  UNL1        0.0180
      3 C         139.5904  139.6349  158.5646 C.3     1  UNL1        0.0311
      4 C         140.0087  138.3564  157.9009 C.3     1  UNL1        0.0973
      5 N         141.4429  138.4978  157.4849 N.am    1  UNL1       -0.2452
      6 C         142.2647  137.4561  156.7851 C.2     1  UNL1        0.4094
      7 O         143.6938  137.7420  156.4302 O.2     1  UNL1       -0.2258
      8 C         141.9111  139.8636  157.8916 C.3     1  UNL1        0.1053
      9 C         140.7662  140.5663  158.5589 C.3     1  UNL1        0.0903
     10 C         140.3479  141.8448  159.2226 C.3     1  UNL1        0.0261
     11 C         141.9418  141.4978  158.5531 C.2     1  UNL1        0.2267
     12 O         142.1622  142.4203  157.3910 O.2     1  UNL1       -0.2748
     13 N         142.8973  141.5069  159.7095 N.am    1  UNL1       -0.2750
     14 C         144.0729  142.4383  159.7038 C.3     1  UNL1        0.1000
     15 C         145.0282  142.4473  160.8602 C.3     1  UNL1        0.0670
     16 C         144.8079  141.5249  162.0223 C.ar    1  UNL1        0.0583
     17 N         145.7633  141.5339  163.1787 N.ar    1  UNL1       -0.2484
     18 C         145.5429  140.6114  164.3408 C.ar    1  UNL1        0.1023
     19 C         144.3672  139.6799  164.3465 C.ar    1  UNL1        0.0902
     20 C         143.4119  139.6709  163.1901 C.ar    1  UNL1        0.0040
     21 C         143.6322  140.5934  162.0280 C.ar    1  UNL1        0.0113
     22 C         142.6769  140.5844  160.8716 C.3     1  UNL1        0.1213
     23 C         144.1468  138.7574  165.5086 C.3     1  UNL1        0.4200
     24 F         143.9265  137.8350  166.6707 F       1  UNL1       -0.1658
     25 F         145.6056  138.4080  165.5078 F       1  UNL1       -0.1658
     26 F         142.6881  139.1068  165.5093 F       1  UNL1       -0.1658
     27 N         138.0918  142.7451  160.3385 N.3     1  UNL1       -0.2975
     28 H         138.4079  143.6510  159.9923 H       1  UNL1        0.1232
     29 C         138.4976  144.1038  162.5154 C.3     1  UNL1        0.1591
     30 C         138.5072  144.1851  164.0132 C.3     1  UNL1        0.1729
     31 O         138.1206  142.9891  164.8317 O.3     1  UNL1       -0.3511
     32 C         137.7244  141.7116  164.1525 C.3     1  UNL1        0.1437
     33 C         137.7148  141.6303  162.6548 C.3     1  UNL1        0.0503
     34 C         138.1014  142.8264  161.8362 C.3     1  UNL1        0.0865
     35 C         140.3165  145.5080  161.3032 C.3     1  UNL1        0.1742
     36 O         138.8841  145.2998  161.6969 O.3     1  UNL1       -0.3496
     37 O         141.6574  136.1287  156.4401 O.3     1  UNL1       -0.4101
     38 C         142.5155  134.8990  156.4003 C.ar    1  UNL1        0.1500
     39 C         142.5386  134.0401  155.1708 C.ar    1  UNL1        0.0377
     40 C         143.3967  132.8104  155.1309 C.ar    1  UNL1        0.0031
     41 C         144.2318  132.4397  156.3205 C.ar    1  UNL1        0.0002
     42 C         144.2088  133.2987  157.5500 C.ar    1  UNL1        0.0031
     43 C         143.3507  134.5283  157.5899 C.ar    1  UNL1        0.0377
@<TRIPOS>BOND
     1    35    36    1
     2    36    29    1
     3    29    30    1
     4    30    31    1
     5    31    32    1
     6    32    33    1
     7    33    34    1
     8    34    27    1
     9     1    27    1
    10     1     2    1
    11     3     2    1
    12     3     4    1
    13     4     5    1
    14     5     6   am
    15     6     7    2
    16     6    37    1
    17    37    38    1
    18    38    39   ar
    19    39    40   ar
    20    40    41   ar
    21    41    42   ar
    22    42    43   ar
    23     5     8    1
    24     8     9    1
    25     9    11    1
    26    11    12    2
    27    11    13   am
    28    13    14    1
    29    14    15    1
    30    15    16    1
    31    16    17   ar
    32    17    18   ar
    33    18    19   ar
    34    19    23    1
    35    23    24    1
    36    23    25    1
    37    23    26    1
    38    19    20   ar
    39    20    21   ar
    40    21    22    1
    41     9    10    1
    42    34    29    1
    43    10     1    1
    44     9     3    1
    45    22    13    1
    46    43    38   ar
    47    21    16   ar
    48    27    28    1
@<TRIPOS>MOLECULE
*****
 43 48 0 0 0
SMALL
GASTEIGER

@<TRIPOS>ATOM
      1 C         138.7970  142.3147  159.8951 C.3     1  UNL1        0.0546
      2 C         139.5094  142.9244  158.7243 C.3     1  UNL1        0.0180
      3 C         140.4811  141.9119  158.1945 C.3     1  UNL1        0.0311
      4 C         141.5219  141.6630  157.1434 C.3     1  UNL1        0.0973
      5 N         142.0532  140.2736  157.3371 N.am    1  UNL1       -0.2452
      6 C         143.1113  139.6105  156.5060 C.2     1  UNL1        0.4094
      7 O         143.5434  138.2089  156.8207 O.2     1  UNL1       -0.2258
      8 C         141.3408  139.6639  158.5079 C.3     1  UNL1        0.1053
      9 C         140.3691  140.6764  159.0377 C.3     1  UNL1        0.0903
     10 C         139.3283  140.9254  160.0888 C.3     1  UNL1        0.0261
     11 C         140.2572  139.4410  159.8810 C.2     1  UNL1        0.2267
     12 O         139.5252  138.2403  159.3589 O.2     1  UNL1       -0.2748
     13 N         140.8772  139.4062  161.2465 N.am    1  UNL1       -0.2750
     14 C         140.7653  138.1707  162.0897 C.3     1  UNL1        0.1000
     15 C         141.3853  138.1360  163.4551 C.3     1  UNL1        0.0670
     16 C         142.1173  139.3366  163.9772 C.ar    1  UNL1        0.0583
     17 N         142.7374  139.3018  165.3427 N.ar    1  UNL1       -0.2484
     18 C         143.4694  140.5024  165.8648 C.ar    1  UNL1        0.1023
     19 C         143.5814  141.7379  165.0214 C.ar    1  UNL1        0.0902
     20 C         142.9613  141.7727  163.6560 C.ar    1  UNL1        0.0040
     21 C         142.2293  140.5720  163.1339 C.ar    1  UNL1        0.0113
     22 C         141.6093  140.6068  161.7686 C.3     1  UNL1        0.1213
     23 C         144.3134  142.9386  165.5435 C.3     1  UNL1        0.4200
     24 F         145.0454  144.1392  166.0656 F       1  UNL1       -0.1658
     25 F         143.7602  142.6801  166.9136 F       1  UNL1       -0.1658
     26 F         144.8666  143.1971  164.1734 F       1  UNL1       -0.1658
     27 N         137.7389  142.9779  160.7262 N.3     1  UNL1       -0.2975
     28 H         137.5870  143.9036  160.3257 H       1  UNL1        0.1232
     29 C         138.5123  144.4676  162.7093 C.3     1  UNL1        0.1591
     30 C         138.7273  144.6625  164.1809 C.3     1  UNL1        0.1729
     31 O         138.3839  143.5626  165.1412 O.3     1  UNL1       -0.3511
     32 C         137.8254  142.2677  164.6299 C.3     1  UNL1        0.1437
     33 C         137.6104  142.0728  163.1582 C.3     1  UNL1        0.0503
     34 C         137.9539  143.1728  162.1979 C.3     1  UNL1        0.0865
     35 C         140.2592  145.7055  161.2374 C.3     1  UNL1        0.1742
     36 O         138.8558  145.5675  161.7490 O.3     1  UNL1       -0.3496
     37 O         143.7373  140.3488  155.3601 O.3     1  UNL1       -0.4101
     38 C         145.0595  141.0333  155.5418 C.ar    1  UNL1        0.1500
     39 C         145.3564  141.7650  156.8171 C.ar    1  UNL1        0.0377
     40 C         146.6787  142.4495  156.9987 C.ar    1  UNL1        0.0031
     41 C         147.7042  142.4022  155.9050 C.ar    1  UNL1        0.0002
     42 C         147.4074  141.6704  154.6297 C.ar    1  UNL1        0.0031
     43 C         146.0851  140.9859  154.4481 C.ar    1  UNL1        0.0377
@<TRIPOS>BOND
     1    35    36    1
     2    36    29    1
     3    29    30    1
     4    30    31    1
     5    31    32    1
     6    32    33    1
     7    33    34    1
     8    34    27    1
     9     1    27    1
    10     1     2    1
    11     3     2    1
    12     3     4    1
    13     4     5    1
    14     5     6   am
    15     6     7    2
    16     6    37    1
    17    37    38    1
    18    38    39   ar
    19    39    40   ar
    20    40    41   ar
    21    41    42   ar
    22    42    43   ar
    23     5     8    1
    24     8     9    1
    25     9    11    1
    26    11    12    2
    27    11    13   am
    28    13    14    1
    29    14    15    1
    30    15    16    1
    31    16    17   ar
    32    17    18   ar
    33    18    19   ar
    34    19    23    1
    35    23    24    1
    36    23    25    1
    37    23    26    1
    38    19    20   ar
    39    20    21   ar
    40    21    22    1
    41     9    10    1
    42    34    29    1
    43    10     1    1
    44     9     3    1
    45    22    13    1
    46    43    38   ar
    47    21    16   ar
    48    27    28    1
@<TRIPOS>MOLECULE
*****
 43 48 0 0 0
SMALL
GASTEIGER

@<TRIPOS>ATOM
      1 C         140.0437  140.9692  158.8383 C.3     1  UNL1        0.0546
      2 C         139.3241  140.0645  157.8825 C.3     1  UNL1        0.0180
      3 C         140.2312  138.9138  157.5614 C.3     1  UNL1        0.0311
      4 C         140.3471  137.6434  156.7722 C.3     1  UNL1        0.0973
      5 N         141.6989  137.0519  157.0419 N.am    1  UNL1       -0.2452
      6 C         142.2367  135.7790  156.4581 C.2     1  UNL1        0.4094
      7 O         143.6143  135.3103  156.8222 O.2     1  UNL1       -0.2258
      8 C         142.4185  137.9567  157.9977 C.3     1  UNL1        0.1053
      9 C         141.5114  139.1073  158.3188 C.3     1  UNL1        0.0903
     10 C         141.3955  140.3777  159.1079 C.3     1  UNL1        0.0261
     11 C         142.7916  139.3010  159.0762 C.2     1  UNL1        0.2267
     12 O         144.0701  139.5579  158.3349 O.2     1  UNL1       -0.2748
     13 N         142.7933  139.2376  160.5749 N.am    1  UNL1       -0.2750
     14 C         144.0735  139.4312  161.3322 C.3     1  UNL1        0.1000
     15 C         144.0751  139.3679  162.8309 C.3     1  UNL1        0.0670
     16 C         142.7967  139.1110  163.5721 C.ar    1  UNL1        0.0583
     17 N         142.7984  139.0477  165.0708 N.ar    1  UNL1       -0.2484
     18 C         141.5199  138.7907  165.8121 C.ar    1  UNL1        0.1023
     19 C         140.2397  138.5971  165.0546 C.ar    1  UNL1        0.0902
     20 C         140.2380  138.6604  163.5560 C.ar    1  UNL1        0.0040
     21 C         141.5165  138.9174  162.8148 C.ar    1  UNL1        0.0113
     22 C         141.5148  138.9807  161.3161 C.3     1  UNL1        0.1213
     23 C         138.9612  138.3402  165.7959 C.3     1  UNL1        0.4200
     24 F         137.6827  138.0832  166.5372 F       1  UNL1       -0.1658
     25 F         139.2715  139.4762  166.7249 F       1  UNL1       -0.1658
     26 F         138.6509  137.2041  164.8669 F       1  UNL1       -0.1658
     27 N         139.5059  142.2421  159.4220 N.3     1  UNL1       -0.2975
     28 H         140.2982  142.8758  159.5269 H       1  UNL1        0.1232
     29 C         138.6720  143.4764  161.5507 C.3     1  UNL1        0.1591
     30 C         137.9582  143.4537  162.8697 C.3     1  UNL1        0.1729
     31 O         137.3643  142.1740  163.3792 O.3     1  UNL1       -0.3511
     32 C         137.4843  140.9169  162.5696 C.3     1  UNL1        0.1437
     33 C         138.1982  140.9396  161.2506 C.3     1  UNL1        0.0503
     34 C         138.7920  142.2194  160.7411 C.3     1  UNL1        0.0865
     35 C         140.3373  145.4512  161.8279 C.3     1  UNL1        0.1742
     36 O         139.2659  144.7561  161.0412 O.3     1  UNL1       -0.3496
     37 O         141.3970  134.9750  155.5104 O.3     1  UNL1       -0.4101
     38 C         141.8788  133.6379  155.0309 C.ar    1  UNL1        0.1500
     39 C         142.1229  133.4089  153.5687 C.ar    1  UNL1        0.0377
     40 C         142.6047  132.0717  153.0892 C.ar    1  UNL1        0.0031
     41 C         142.8425  130.9637  154.0718 C.ar    1  UNL1        0.0002
     42 C         142.5984  131.1927  155.5340 C.ar    1  UNL1        0.0031
     43 C         142.1166  132.5298  156.0135 C.ar    1  UNL1        0.0377
@<TRIPOS>BOND
     1    35    36    1
     2    36    29    1
     3    29    30    1
     4    30    31    1
     5    31    32    1
     6    32    33    1
     7    33    34    1
     8    34    27    1
     9     1    27    1
    10     1     2    1
    11     3     2    1
    12     3     4    1
    13     4     5    1
    14     5     6   am
    15     6     7    2
    16     6    37    1
    17    37    38    1
    18    38    39   ar
    19    39    40   ar
    20    40    41   ar
    21    41    42   ar
    22    42    43   ar
    23     5     8    1
    24     8     9    1
    25     9    11    1
    26    11    12    2
    27    11    13   am
    28    13    14    1
    29    14    15    1
    30    15    16    1
    31    16    17   ar
    32    17    18   ar
    33    18    19   ar
    34    19    23    1
    35    23    24    1
    36    23    25    1
    37    23    26    1
    38    19    20   ar
    39    20    21   ar
    40    21    22    1
    41     9    10    1
    42    34    29    1
    43    10     1    1
    44     9     3    1
    45    22    13    1
    46    43    38   ar
    47    21    16   ar
    48    27    28    1
@<TRIPOS>MOLECULE
*****
 43 48 0 0 0
SMALL
GASTEIGER

@<TRIPOS>ATOM
      1 C         139.6384  142.9054  159.9196 C.3     1  UNL1        0.0546
      2 C         140.5518  143.8848  159.2441 C.3     1  UNL1        0.0180
      3 C         141.6966  143.1181  158.6511 C.3     1  UNL1        0.0311
      4 C         142.9686  143.2495  157.8671 C.3     1  UNL1        0.0973
      5 N         143.5488  141.8774  157.6916 N.am    1  UNL1       -0.2452
      6 C         144.8195  141.5434  156.9676 C.2     1  UNL1        0.4094
      7 O         145.2764  140.1178  156.8733 O.2     1  UNL1       -0.2258
      8 C         142.6354  140.8980  158.3671 C.3     1  UNL1        0.1053
      9 C         141.4907  141.6647  158.9601 C.3     1  UNL1        0.0903
     10 C         140.2186  141.5333  159.7441 C.3     1  UNL1        0.0261
     11 C         141.2847  140.2114  159.2692 C.2     1  UNL1        0.2267
     12 O         140.8960  139.2600  158.1766 O.2     1  UNL1       -0.2748
     13 N         141.4675  139.7095  160.6709 N.am    1  UNL1       -0.2750
     14 C         141.2615  138.2562  160.9800 C.3     1  UNL1        0.1000
     15 C         141.4443  137.7544  162.3816 C.3     1  UNL1        0.0670
     16 C         141.8330  138.7058  163.4742 C.ar    1  UNL1        0.0583
     17 N         142.0157  138.2038  164.8759 N.ar    1  UNL1       -0.2484
     18 C         142.4044  139.1552  165.9685 C.ar    1  UNL1        0.1023
     19 C         142.6104  140.6085  165.6594 C.ar    1  UNL1        0.0902
     20 C         142.4276  141.1104  164.2577 C.ar    1  UNL1        0.0040
     21 C         142.0389  140.1590  163.1651 C.ar    1  UNL1        0.0113
     22 C         141.8562  140.6609  161.7635 C.3     1  UNL1        0.1213
     23 C         142.9991  141.5599  166.7520 C.3     1  UNL1        0.4200
     24 F         143.3877  142.5113  167.8446 F       1  UNL1       -0.1658
     25 F         142.9705  140.4340  167.7426 F       1  UNL1       -0.1658
     26 F         143.0276  142.6859  165.7614 F       1  UNL1       -0.1658
     27 N         138.3678  143.2393  160.6435 N.3     1  UNL1       -0.2975
     28 H         138.0098  144.0996  160.2285 H       1  UNL1        0.1232
     29 C         137.7475  142.4378  163.0358 C.3     1  UNL1        0.1591
     30 C         137.7634  142.6475  164.5210 C.3     1  UNL1        0.1729
     31 O         138.4155  143.8683  165.0991 O.3     1  UNL1       -0.3511
     32 C         139.0517  144.8796  164.1920 C.3     1  UNL1        0.1437
     33 C         139.0358  144.6699  162.7069 C.3     1  UNL1        0.0503
     34 C         138.3837  143.4490  162.1287 C.3     1  UNL1        0.0865
     35 C         137.9041  139.9761  162.2200 C.3     1  UNL1        0.1742
     36 O         137.0955  141.2170  162.4576 O.3     1  UNL1       -0.3496
     37 O         145.6331  142.6350  156.3381 O.3     1  UNL1       -0.4101
     38 C         146.8283  142.2911  155.4995 C.ar    1  UNL1        0.1500
     39 C         148.1780  142.1518  156.1389 C.ar    1  UNL1        0.0377
     40 C         149.3733  141.8078  155.3003 C.ar    1  UNL1        0.0031
     41 C         149.2187  141.6032  153.8224 C.ar    1  UNL1        0.0002
     42 C         147.8690  141.7425  153.1831 C.ar    1  UNL1        0.0031
     43 C         146.6738  142.0864  154.0216 C.ar    1  UNL1        0.0377
@<TRIPOS>BOND
     1    35    36    1
     2    36    29    1
     3    29    30    1
     4    30    31    1
     5    31    32    1
     6    32    33    1
     7    33    34    1
     8    34    27    1
     9     1    27    1
    10     1     2    1
    11     3     2    1
    12     3     4    1
    13     4     5    1
    14     5     6   am
    15     6     7    2
    16     6    37    1
    17    37    38    1
    18    38    39   ar
    19    39    40   ar
    20    40    41   ar
    21    41    42   ar
    22    42    43   ar
    23     5     8    1
    24     8     9    1
    25     9    11    1
    26    11    12    2
    27    11    13   am
    28    13    14    1
    29    14    15    1
    30    15    16    1
    31    16    17   ar
    32    17    18   ar
    33    18    19   ar
    34    19    23    1
    35    23    24    1
    36    23    25    1
    37    23    26    1
    38    19    20   ar
    39    20    21   ar
    40    21    22    1
    41     9    10    1
    42    34    29    1
    43    10     1    1
    44     9     3    1
    45    22    13    1
    46    43    38   ar
    47    21    16   ar
    48    27    28    1
@<TRIPOS>MOLECULE
*****
 43 48 0 0 0
SMALL
GASTEIGER

@<TRIPOS>ATOM
      1 C         142.2079  138.6979  157.6669 C.3     1  UNL1        0.0546
      2 C         142.5940  137.9560  158.9120 C.3     1  UNL1        0.0180
      3 C         143.2318  138.9329  159.8548 C.3     1  UNL1        0.0311
      4 C         143.8646  139.0782  161.2070 C.3     1  UNL1        0.0973
      5 N         144.2637  140.5137  161.3802 N.am    1  UNL1       -0.2452
      6 C         144.9317  141.1037  162.5868 C.2     1  UNL1        0.4094
      7 O         145.2727  142.5641  162.6164 O.2     1  UNL1       -0.2258
      8 C         143.8776  141.2557  160.1351 C.3     1  UNL1        0.1053
      9 C         143.2399  140.2787  159.1923 C.3     1  UNL1        0.0903
     10 C         142.6071  140.1335  157.8401 C.3     1  UNL1        0.0261
     11 C         143.2479  141.6244  158.5298 C.2     1  UNL1        0.2267
     12 O         144.0968  141.8575  157.3153 O.2     1  UNL1       -0.2748
     13 N         142.4070  142.7372  159.0818 N.am    1  UNL1       -0.2750
     14 C         142.4150  144.0829  158.4193 C.3     1  UNL1        0.1000
     15 C         141.5742  145.1956  158.9714 C.3     1  UNL1        0.0670
     16 C         140.7252  144.9626  160.1859 C.ar    1  UNL1        0.0583
     17 N         139.8843  146.0754  160.7379 N.ar    1  UNL1       -0.2484
     18 C         139.0354  145.8424  161.9525 C.ar    1  UNL1        0.1023
     19 C         139.0274  144.4966  162.6149 C.ar    1  UNL1        0.0902
     20 C         139.8683  143.3839  162.0629 C.ar    1  UNL1        0.0040
     21 C         140.7172  143.6169  160.8484 C.ar    1  UNL1        0.0113
     22 C         141.5581  142.5042  160.2964 C.3     1  UNL1        0.1213
     23 C         138.1785  144.2636  163.8295 C.3     1  UNL1        0.4200
     24 F         137.3296  144.0305  165.0440 F       1  UNL1       -0.1658
     25 F         139.0551  145.1893  164.6198 F       1  UNL1       -0.1658
     26 F         137.3020  143.3378  163.0392 F       1  UNL1       -0.1658
     27 N         141.5399  138.1080  156.4602 N.3     1  UNL1       -0.2975
     28 H         140.5508  138.0107  156.6893 H       1  UNL1        0.1232
     29 C         143.4514  136.5299  155.6819 C.3     1  UNL1        0.1591
     30 C         143.9045  135.2037  155.1472 C.3     1  UNL1        0.1729
     31 O         142.8990  134.1294  154.8560 O.3     1  UNL1       -0.3511
     32 C         141.4405  134.3812  155.0996 C.3     1  UNL1        0.1437
     33 C         140.9874  135.7074  155.6344 C.3     1  UNL1        0.0503
     34 C         141.9930  136.7818  155.9255 C.3     1  UNL1        0.0865
     35 C         144.7657  138.6434  154.9362 C.3     1  UNL1        0.1742
     36 O         144.4569  137.6043  155.9731 O.3     1  UNL1       -0.3496
     37 O         145.2587  140.2332  163.7638 O.3     1  UNL1       -0.4101
     38 C         144.2796  140.0987  164.8921 C.ar    1  UNL1        0.1500
     39 C         143.5150  141.2980  165.3686 C.ar    1  UNL1        0.0377
     40 C         142.5359  141.1635  166.4970 C.ar    1  UNL1        0.0031
     41 C         142.3213  139.8297  167.1489 C.ar    1  UNL1        0.0002
     42 C         143.0859  138.6304  166.6724 C.ar    1  UNL1        0.0031
     43 C         144.0650  138.7649  165.5440 C.ar    1  UNL1        0.0377
@<TRIPOS>BOND
     1    35    36    1
     2    36    29    1
     3    29    30    1
     4    30    31    1
     5    31    32    1
     6    32    33    1
     7    33    34    1
     8    34    27    1
     9     1    27    1
    10     1     2    1
    11     3     2    1
    12     3     4    1
    13     4     5    1
    14     5     6   am
    15     6     7    2
    16     6    37    1
    17    37    38    1
    18    38    39   ar
    19    39    40   ar
    20    40    41   ar
    21    41    42   ar
    22    42    43   ar
    23     5     8    1
    24     8     9    1
    25     9    11    1
    26    11    12    2
    27    11    13   am
    28    13    14    1
    29    14    15    1
    30    15    16    1
    31    16    17   ar
    32    17    18   ar
    33    18    19   ar
    34    19    23    1
    35    23    24    1
    36    23    25    1
    37    23    26    1
    38    19    20   ar
    39    20    21   ar
    40    21    22    1
    41     9    10    1
    42    34    29    1
    43    10     1    1
    44     9     3    1
    45    22    13    1
    46    43    38   ar
    47    21    16   ar
    48    27    28    1
@<TRIPOS>MOLECULE
*****
 43 48 0 0 0
SMALL
GASTEIGER

@<TRIPOS>ATOM
      1 C         141.8869  144.7153  162.4355 C.3     1  UNL1        0.0546
      2 C         140.7872  145.5060  161.7912 C.3     1  UNL1        0.0180
      3 C         140.7412  145.1373  160.3380 C.3     1  UNL1        0.0311
      4 C         140.0331  145.3981  159.0416 C.3     1  UNL1        0.0973
      5 N         140.6668  144.5405  157.9866 N.am    1  UNL1       -0.2452
      6 C         140.2703  144.4838  156.5410 C.2     1  UNL1        0.4094
      7 O         140.9999  143.5732  155.5984 O.2     1  UNL1       -0.2258
      8 C         141.7666  143.7498  158.6309 C.3     1  UNL1        0.1053
      9 C         141.8126  144.1185  160.0841 C.3     1  UNL1        0.0903
     10 C         142.5207  143.8577  161.3805 C.3     1  UNL1        0.0261
     11 C         142.8839  143.0998  159.8303 C.2     1  UNL1        0.2267
     12 O         144.0185  143.4198  158.9027 O.2     1  UNL1       -0.2748
     13 N         142.8207  141.7611  160.5040 N.am    1  UNL1       -0.2750
     14 C         143.8920  140.7424  160.2502 C.3     1  UNL1        0.1000
     15 C         143.8288  139.4038  160.9240 C.3     1  UNL1        0.0670
     16 C         142.6942  139.0838  161.8515 C.ar    1  UNL1        0.0583
     17 N         142.6310  137.7451  162.5253 N.ar    1  UNL1       -0.2484
     18 C         141.4964  137.4251  163.4529 C.ar    1  UNL1        0.1023
     19 C         140.4251  138.4439  163.7067 C.ar    1  UNL1        0.0902
     20 C         140.4883  139.7825  163.0329 C.ar    1  UNL1        0.0040
     21 C         141.6229  140.1025  162.1054 C.ar    1  UNL1        0.0113
     22 C         141.6861  141.4411  161.4316 C.3     1  UNL1        0.1213
     23 C         139.2905  138.1239  164.6342 C.3     1  UNL1        0.4200
     24 F         138.1559  137.8040  165.5618 F       1  UNL1       -0.1658
     25 F         138.5686  137.4358  163.5138 F       1  UNL1       -0.1658
     26 F         140.0124  138.8121  165.7546 F       1  UNL1       -0.1658
     27 N         142.2834  144.7720  163.8811 N.3     1  UNL1       -0.2975
     28 H         143.2539  145.0848  163.9082 H       1  UNL1        0.1232
     29 C         143.3911  142.6311  164.8504 C.3     1  UNL1        0.1591
     30 C         143.3100  141.3971  165.6993 C.3     1  UNL1        0.1729
     31 O         142.0403  141.0699  166.4278 O.3     1  UNL1       -0.3511
     32 C         140.8515  141.9769  166.3074 C.3     1  UNL1        0.1437
     33 C         140.9326  143.2109  165.4585 C.3     1  UNL1        0.0503
     34 C         142.2024  143.5380  164.7300 C.3     1  UNL1        0.0865
     35 C         145.4472  141.8668  163.4583 C.3     1  UNL1        0.1742
     36 O         144.6608  142.9582  164.1219 O.3     1  UNL1       -0.3496
     37 O         139.1443  145.3376  156.0381 O.3     1  UNL1       -0.4101
     38 C         139.4390  146.6265  155.3297 C.ar    1  UNL1        0.1500
     39 C         140.3256  146.6317  154.1198 C.ar    1  UNL1        0.0377
     40 C         140.6203  147.9207  153.4114 C.ar    1  UNL1        0.0031
     41 C         140.0284  149.2044  153.9129 C.ar    1  UNL1        0.0002
     42 C         139.1418  149.1993  155.1229 C.ar    1  UNL1        0.0031
     43 C         138.8471  147.9104  155.8312 C.ar    1  UNL1        0.0377
@<TRIPOS>BOND
     1    35    36    1
     2    36    29    1
     3    29    30    1
     4    30    31    1
     5    31    32    1
     6    32    33    1
     7    33    34    1
     8    34    27    1
     9     1    27    1
    10     1     2    1
    11     3     2    1
    12     3     4    1
    13     4     5    1
    14     5     6   am
    15     6     7    2
    16     6    37    1
    17    37    38    1
    18    38    39   ar
    19    39    40   ar
    20    40    41   ar
    21    41    42   ar
    22    42    43   ar
    23     5     8    1
    24     8     9    1
    25     9    11    1
    26    11    12    2
    27    11    13   am
    28    13    14    1
    29    14    15    1
    30    15    16    1
    31    16    17   ar
    32    17    18   ar
    33    18    19   ar
    34    19    23    1
    35    23    24    1
    36    23    25    1
    37    23    26    1
    38    19    20   ar
    39    20    21   ar
    40    21    22    1
    41     9    10    1
    42    34    29    1
    43    10     1    1
    44     9     3    1
    45    22    13    1
    46    43    38   ar
    47    21    16   ar
    48    27    28    1
@<TRIPOS>MOLECULE
*****
 43 48 0 0 0
SMALL
GASTEIGER

@<TRIPOS>ATOM
      1 C         142.1963  142.8134  159.4334 C.3     1  UNL1        0.0546
      2 C         143.0610  141.9989  158.5175 C.3     1  UNL1        0.0180
      3 C         142.2442  140.8470  158.0117 C.3     1  UNL1        0.0311
      4 C         142.2738  139.6316  157.1331 C.3     1  UNL1        0.0973
      5 N         140.9226  138.9830  157.1933 N.am    1  UNL1       -0.2452
      6 C         140.5088  137.7384  156.4654 C.2     1  UNL1        0.4094
      7 O         139.1159  137.2049  156.6239 O.2     1  UNL1       -0.2258
      8 C         140.0579  139.7975  158.1091 C.3     1  UNL1        0.1053
      9 C         140.8747  140.9495  158.6150 C.3     1  UNL1        0.0903
     10 C         140.8451  142.1649  159.4936 C.3     1  UNL1        0.0261
     11 C         139.5052  141.0521  159.2182 C.2     1  UNL1        0.2267
     12 O         138.3435  141.4827  158.3727 O.2     1  UNL1       -0.2748
     13 N         139.2974  140.7240  160.6671 N.am    1  UNL1       -0.2750
     14 C         137.9279  140.8265  161.2704 C.3     1  UNL1        0.1000
     15 C         137.7201  140.4984  162.7192 C.3     1  UNL1        0.0670
     16 C         138.8818  140.0677  163.5647 C.ar    1  UNL1        0.0583
     17 N         138.6740  139.7396  165.0136 N.ar    1  UNL1       -0.2484
     18 C         139.8357  139.3090  165.8592 C.ar    1  UNL1        0.1023
     19 C         141.2052  139.2064  165.2559 C.ar    1  UNL1        0.0902
     20 C         141.4130  139.5345  163.8071 C.ar    1  UNL1        0.0040
     21 C         140.2513  139.9652  162.9615 C.ar    1  UNL1        0.0113
     22 C         140.4591  140.2933  161.5127 C.3     1  UNL1        0.1213
     23 C         142.3669  138.7757  166.1014 C.3     1  UNL1        0.4200
     24 F         143.5286  138.3450  166.9470 F       1  UNL1       -0.1658
     25 F         143.0261  138.1805  164.8926 F       1  UNL1       -0.1658
     26 F         141.7077  139.3709  167.3102 F       1  UNL1       -0.1658
     27 N         142.6101  144.0581  160.1613 N.3     1  UNL1       -0.2975
     28 H         143.5174  144.3318  159.7842 H       1  UNL1        0.1232
     29 C         141.5720  144.3821  162.5208 C.3     1  UNL1        0.1591
     30 C         141.7105  144.3665  164.0143 C.3     1  UNL1        0.1729
     31 O         143.0258  144.0112  164.6418 O.3     1  UNL1       -0.3511
     32 C         144.2025  143.6714  163.7758 C.3     1  UNL1        0.1437
     33 C         144.0640  143.6871  162.2823 C.3     1  UNL1        0.0503
     34 C         142.7486  144.0424  161.6548 C.3     1  UNL1        0.0865
     35 C         139.8282  146.1727  161.8113 C.3     1  UNL1        0.1742
     36 O         140.2567  144.7375  161.8932 O.3     1  UNL1       -0.3496
     37 O         141.4879  137.0273  155.5790 O.3     1  UNL1       -0.4101
     38 C         141.9625  135.6506  155.9386 C.ar    1  UNL1        0.1500
     39 C         143.0460  135.4740  156.9608 C.ar    1  UNL1        0.0377
     40 C         143.5206  134.0971  157.3204 C.ar    1  UNL1        0.0031
     41 C         142.9117  132.8971  156.6578 C.ar    1  UNL1        0.0002
     42 C         141.8282  133.0737  155.6357 C.ar    1  UNL1        0.0031
     43 C         141.3537  134.4504  155.2761 C.ar    1  UNL1        0.0377
@<TRIPOS>BOND
     1    35    36    1
     2    36    29    1
     3    29    30    1
     4    30    31    1
     5    31    32    1
     6    32    33    1
     7    33    34    1
     8    34    27    1
     9     1    27    1
    10     1     2    1
    11     3     2    1
    12     3     4    1
    13     4     5    1
    14     5     6   am
    15     6     7    2
    16     6    37    1
    17    37    38    1
    18    38    39   ar
    19    39    40   ar
    20    40    41   ar
    21    41    42   ar
    22    42    43   ar
    23     5     8    1
    24     8     9    1
    25     9    11    1
    26    11    12    2
    27    11    13   am
    28    13    14    1
    29    14    15    1
    30    15    16    1
    31    16    17   ar
    32    17    18   ar
    33    18    19   ar
    34    19    23    1
    35    23    24    1
    36    23    25    1
    37    23    26    1
    38    19    20   ar
    39    20    21   ar
    40    21    22    1
    41     9    10    1
    42    34    29    1
    43    10     1    1
    44     9     3    1
    45    22    13    1
    46    43    38   ar
    47    21    16   ar
    48    27    28    1
@<TRIPOS>MOLECULE
*****
 43 48 0 0 0
SMALL
GASTEIGER

@<TRIPOS>ATOM
      1 C         141.4915  144.8293  162.3337 C.3     1  UNL1        0.0546
      2 C         140.4401  145.5538  161.5466 C.3     1  UNL1        0.0180
      3 C         140.5547  145.1237  160.1142 C.3     1  UNL1        0.0311
      4 C         139.9758  145.3055  158.7424 C.3     1  UNL1        0.0973
      5 N         140.7403  144.4276  157.7965 N.am    1  UNL1       -0.2452
      6 C         140.4962  144.2971  156.3222 C.2     1  UNL1        0.4094
      7 O         141.3461  143.3742  155.5001 O.2     1  UNL1       -0.2258
      8 C         141.7918  143.7031  158.5836 C.3     1  UNL1        0.1053
      9 C         141.6771  144.1333  160.0160 C.3     1  UNL1        0.0903
     10 C         142.2560  143.9514  161.3878 C.3     1  UNL1        0.0261
     11 C         142.7994  143.1430  159.9179 C.2     1  UNL1        0.2267
     12 O         143.9800  143.4320  159.0389 O.2     1  UNL1       -0.2748
     13 N         142.7411  141.8636  160.6989 N.am    1  UNL1       -0.2750
     14 C         143.8634  140.8732  160.6007 C.3     1  UNL1        0.1000
     15 C         143.8052  139.5939  161.3817 C.3     1  UNL1        0.0670
     16 C         142.6246  139.3049  162.2607 C.ar    1  UNL1        0.0583
     17 N         142.5663  138.0255  163.0417 N.ar    1  UNL1       -0.2484
     18 C         141.3858  137.7365  163.9207 C.ar    1  UNL1        0.1023
     19 C         140.2634  138.7269  164.0188 C.ar    1  UNL1        0.0902
     20 C         140.3217  140.0062  163.2379 C.ar    1  UNL1        0.0040
     21 C         141.5023  140.2952  162.3588 C.ar    1  UNL1        0.0113
     22 C         141.5606  141.5746  161.5779 C.3     1  UNL1        0.1213
     23 C         139.0829  138.4379  164.8978 C.3     1  UNL1        0.4200
     24 F         137.9023  138.1489  165.7769 F       1  UNL1       -0.1658
     25 F         138.5023  139.7789  164.5591 F       1  UNL1       -0.1658
     26 F         139.6634  137.0969  165.2366 F       1  UNL1       -0.1658
     27 N         141.7356  144.9598  163.8080 N.3     1  UNL1       -0.2975
     28 H         142.6956  145.2859  163.9198 H       1  UNL1        0.1232
     29 C         140.2786  143.5329  165.4177 C.3     1  UNL1        0.1591
     30 C         140.1195  142.3397  166.3127 C.3     1  UNL1        0.1729
     31 O         141.2584  141.3804  166.4931 O.3     1  UNL1       -0.3511
     32 C         142.5564  141.6141  165.7785 C.3     1  UNL1        0.1437
     33 C         142.7155  142.8073  164.8835 C.3     1  UNL1        0.0503
     34 C         141.5765  143.7667  164.7031 C.3     1  UNL1        0.0865
     35 C         138.0850  144.2189  164.2063 C.3     1  UNL1        0.1742
     36 O         139.1398  144.4923  165.2373 O.3     1  UNL1       -0.3496
     37 O         139.4022  145.0895  155.6701 O.3     1  UNL1       -0.4101
     38 C         139.7301  146.3512  154.9282 C.ar    1  UNL1        0.1500
     39 C         139.1675  147.6620  155.3923 C.ar    1  UNL1        0.0377
     40 C         139.4954  148.9238  154.6503 C.ar    1  UNL1        0.0031
     41 C         140.3859  148.8747  153.4442 C.ar    1  UNL1        0.0002
     42 C         140.9485  147.5640  152.9801 C.ar    1  UNL1        0.0031
     43 C         140.6207  146.3023  153.7221 C.ar    1  UNL1        0.0377
@<TRIPOS>BOND
     1    35    36    1
     2    36    29    1
     3    29    30    1
     4    30    31    1
     5    31    32    1
     6    32    33    1
     7    33    34    1
     8    34    27    1
     9     1    27    1
    10     1     2    1
    11     3     2    1
    12     3     4    1
    13     4     5    1
    14     5     6   am
    15     6     7    2
    16     6    37    1
    17    37    38    1
    18    38    39   ar
    19    39    40   ar
    20    40    41   ar
    21    41    42   ar
    22    42    43   ar
    23     5     8    1
    24     8     9    1
    25     9    11    1
    26    11    12    2
    27    11    13   am
    28    13    14    1
    29    14    15    1
    30    15    16    1
    31    16    17   ar
    32    17    18   ar
    33    18    19   ar
    34    19    23    1
    35    23    24    1
    36    23    25    1
    37    23    26    1
    38    19    20   ar
    39    20    21   ar
    40    21    22    1
    41     9    10    1
    42    34    29    1
    43    10     1    1
    44     9     3    1
    45    22    13    1
    46    43    38   ar
    47    21    16   ar
    48    27    28    1
@<TRIPOS>MOLECULE
*****
 43 48 0 0 0
SMALL
GASTEIGER

@<TRIPOS>ATOM
      1 C         143.8430  141.7603  159.4393 C.3     1  UNL1        0.0546
      2 C         143.1848  142.2299  158.1759 C.3     1  UNL1        0.0180
      3 C         142.2304  141.1636  157.7264 C.3     1  UNL1        0.0311
      4 C         141.2337  140.7948  156.6678 C.3     1  UNL1        0.0973
      5 N         140.6860  139.4382  156.9992 N.am    1  UNL1       -0.2452
      6 C         139.6602  138.6837  156.2063 C.2     1  UNL1        0.4094
      7 O         139.2065  137.3291  156.6635 O.2     1  UNL1       -0.2258
      8 C         141.3442  138.9686  158.2626 C.3     1  UNL1        0.1053
      9 C         142.2986  140.0349  158.7121 C.3     1  UNL1        0.0903
     10 C         143.2953  140.4037  159.7707 C.3     1  UNL1        0.0261
     11 C         142.3669  138.9063  159.6977 C.2     1  UNL1        0.2267
     12 O         143.1167  137.6537  159.3529 O.2     1  UNL1       -0.2748
     13 N         141.6855  139.0302  161.0283 N.am    1  UNL1       -0.2750
     14 C         141.7538  137.9016  162.0139 C.3     1  UNL1        0.1000
     15 C         141.0723  138.0256  163.3444 C.3     1  UNL1        0.0670
     16 C         140.3225  139.2782  163.6892 C.ar    1  UNL1        0.0583
     17 N         139.6411  139.4021  165.0198 N.ar    1  UNL1       -0.2484
     18 C         138.8913  140.6547  165.3646 C.ar    1  UNL1        0.1023
     19 C         138.8230  141.7833  164.3789 C.ar    1  UNL1        0.0902
     20 C         139.5045  141.6594  163.0484 C.ar    1  UNL1        0.0040
     21 C         140.2542  140.4068  162.7036 C.ar    1  UNL1        0.0113
     22 C         140.9357  140.2828  161.3731 C.3     1  UNL1        0.1213
     23 C         138.0732  143.0359  164.7237 C.3     1  UNL1        0.4200
     24 F         137.3235  144.2885  165.0685 F       1  UNL1       -0.1658
     25 F         137.0190  142.6820  163.7170 F       1  UNL1       -0.1658
     26 F         139.1275  143.3898  165.7303 F       1  UNL1       -0.1658
     27 N         144.8688  142.5147  160.2321 N.3     1  UNL1       -0.2975
     28 H         145.7631  142.0502  160.0742 H       1  UNL1        0.1232
     29 C         143.7692  143.6830  162.2757 C.3     1  UNL1        0.1591
     30 C         143.6123  143.8271  163.7605 C.3     1  UNL1        0.1729
     31 O         144.3981  142.9468  164.6866 O.3     1  UNL1       -0.3511
     32 C         145.3409  141.9225  164.1279 C.3     1  UNL1        0.1437
     33 C         145.4978  141.7785  162.6431 C.3     1  UNL1        0.0503
     34 C         144.7119  142.6588  161.7170 C.3     1  UNL1        0.0865
     35 C         141.5751  144.1989  160.9835 C.3     1  UNL1        0.1742
     36 O         142.9834  144.5632  161.3496 O.3     1  UNL1       -0.3496
     37 O         139.0882  139.2839  154.9563 O.3     1  UNL1       -0.4101
     38 C         137.7177  139.8933  154.9762 C.ar    1  UNL1        0.1500
     39 C         136.5481  139.1267  154.4336 C.ar    1  UNL1        0.0377
     40 C         135.1776  139.7362  154.4535 C.ar    1  UNL1        0.0031
     41 C         134.9768  141.1122  155.0158 C.ar    1  UNL1        0.0002
     42 C         136.1464  141.8788  155.5583 C.ar    1  UNL1        0.0031
     43 C         137.5168  141.2694  155.5385 C.ar    1  UNL1        0.0377
@<TRIPOS>BOND
     1    35    36    1
     2    36    29    1
     3    29    30    1
     4    30    31    1
     5    31    32    1
     6    32    33    1
     7    33    34    1
     8    34    27    1
     9     1    27    1
    10     1     2    1
    11     3     2    1
    12     3     4    1
    13     4     5    1
    14     5     6   am
    15     6     7    2
    16     6    37    1
    17    37    38    1
    18    38    39   ar
    19    39    40   ar
    20    40    41   ar
    21    41    42   ar
    22    42    43   ar
    23     5     8    1
    24     8     9    1
    25     9    11    1
    26    11    12    2
    27    11    13   am
    28    13    14    1
    29    14    15    1
    30    15    16    1
    31    16    17   ar
    32    17    18   ar
    33    18    19   ar
    34    19    23    1
    35    23    24    1
    36    23    25    1
    37    23    26    1
    38    19    20   ar
    39    20    21   ar
    40    21    22    1
    41     9    10    1
    42    34    29    1
    43    10     1    1
    44     9     3    1
    45    22    13    1
    46    43    38   ar
    47    21    16   ar
    48    27    28    1
