@<TRIPOS>MOLECULE
*****
 35 38 0 0 0
SMALL
GASTEIGER

@<TRIPOS>ATOM
      1 C         139.1793  140.3497  169.4849 C.ar    1  UNL1        0.1819
      2 N         139.1113  139.8415  168.0753 N.ar    1  UNL1       -0.2306
      3 C         139.7042  140.6477  166.9580 C.ar    1  UNL1        0.1474
      4 C         140.3652  141.9621  167.2503 C.ar    1  UNL1        0.1539
      5 N         140.4332  142.4703  168.6599 N.ar    1  UNL1       -0.2130
      6 C         139.8403  141.6641  169.7773 C.ar    1  UNL1        0.1506
      7 N         139.9083  142.1723  171.1869 N.pl3   1  UNL1       -0.3412
      8 H         140.3421  143.0350  171.3788 H       1  UNL1        0.1438
      9 H         139.5191  141.6432  171.9203 H       1  UNL1        0.1438
     10 C         139.6362  140.1395  165.5483 C.ar    1  UNL1        0.1656
     11 C         138.3993  140.0405  164.7055 C.ar    1  UNL1        0.0422
     12 C         138.7918  139.4809  163.3703 C.ar    1  UNL1        0.0376
     13 C         137.9931  139.1643  162.1407 C.ar    1  UNL1        0.0031
     14 C         138.6739  138.6008  160.9287 C.ar    1  UNL1        0.0002
     15 C         140.1534  138.3539  160.9463 C.ar    1  UNL1        0.0031
     16 C         140.9520  138.6705  162.1759 C.ar    1  UNL1        0.0375
     17 C         140.2712  139.2341  163.3879 C.ar    1  UNL1        0.1454
     18 O         140.7931  139.6411  164.7340 O.2     1  UNL1       -0.4519
     19 N         140.9582  142.7684  166.1329 N.pl3   1  UNL1       -0.2919
     20 C         140.0081  143.6772  165.4108 C.3     1  UNL1        0.0922
     21 C         140.2880  144.6013  164.2629 C.3     1  UNL1        0.0215
     22 C         141.5870  144.8448  163.5536 C.3     1  UNL1        0.0018
     23 C         142.9270  144.2243  163.8170 C.3     1  UNL1        0.0018
     24 C         143.2990  143.2072  164.8548 C.3     1  UNL1        0.0215
     25 C         142.4227  142.5591  165.8855 C.3     1  UNL1        0.0922
     26 N         137.1303  139.1839  170.5770 N.am    1  UNL1       -0.1695
     27 C         138.5863  139.5435  170.6023 C.2     1  UNL1        0.3283
     28 O         139.4494  139.0969  171.7449 O.2     1  UNL1       -0.2498
     29 H         136.5639  139.4770  169.8270 H       1  UNL1        0.2546
     30 N         135.1770  138.7195  172.2259 N.pl3   1  UNL1       -0.1313
     31 C         136.5373  138.3776  171.6943 C.2     1  UNL1        0.3751
     32 N         137.3047  137.2295  172.2800 N.pl3   1  UNL1       -0.2906
     33 H         134.7878  138.1903  172.9593 H       1  UNL1        0.3060
     34 H         136.9155  136.7004  173.0133 H       1  UNL1        0.2545
     35 H         138.1975  137.0051  171.9311 H       1  UNL1        0.2545
@<TRIPOS>BOND
     1    30    31    2
     2    31    32    1
     3    31    26    1
     4    26    27   am
     5    27    28    2
     6    27     1    1
     7     1     2   ar
     8     2     3   ar
     9     3    10    1
    10    10    11   ar
    11    11    12   ar
    12    12    13   ar
    13    13    14   ar
    14    14    15   ar
    15    15    16   ar
    16    16    17   ar
    17    17    18   ar
    18     3     4   ar
    19     4    19    1
    20    19    20    1
    21    20    21    1
    22    21    22    1
    23    22    23    1
    24    23    24    1
    25    24    25    1
    26     4     5   ar
    27     5     6   ar
    28     6     7    1
    29     6     1   ar
    30    18    10   ar
    31    25    19    1
    32    17    12   ar
    33    30    33    1
    34    32    34    1
    35    32    35    1
    36    26    29    1
    37     7     8    1
    38     7     9    1
@<TRIPOS>MOLECULE
*****
 35 38 0 0 0
SMALL
GASTEIGER

@<TRIPOS>ATOM
      1 C         142.4438  139.1467  169.2948 C.ar    1  UNL1        0.1819
      2 N         142.8922  139.1249  167.8636 N.ar    1  UNL1       -0.2306
      3 C         142.0084  139.6910  166.7919 C.ar    1  UNL1        0.1474
      4 C         140.6761  140.2788  167.1515 C.ar    1  UNL1        0.1539
      5 N         140.2276  140.3006  168.5828 N.ar    1  UNL1       -0.2130
      6 C         141.1114  139.7345  169.6544 C.ar    1  UNL1        0.1506
      7 N         140.6630  139.7563  171.0856 N.pl3   1  UNL1       -0.3412
      8 H         139.7885  140.1421  171.3216 H       1  UNL1        0.1438
      9 H         141.2431  139.3847  171.7889 H       1  UNL1        0.1438
     10 C         142.4569  139.6692  165.3607 C.ar    1  UNL1        0.1656
     11 C         142.6088  138.4482  164.5028 C.ar    1  UNL1        0.0422
     12 C         143.0780  138.8889  163.1480 C.ar    1  UNL1        0.0376
     13 C         143.3973  138.1234  161.8983 C.ar    1  UNL1        0.0031
     14 C         143.8548  138.8512  160.6691 C.ar    1  UNL1        0.0002
     15 C         143.9930  140.3447  160.6897 C.ar    1  UNL1        0.0031
     16 C         143.6737  141.1103  161.9394 C.ar    1  UNL1        0.0375
     17 C         143.2162  140.3824  163.1686 C.ar    1  UNL1        0.1454
     18 O         142.8323  140.8646  164.5361 O.2     1  UNL1       -0.4519
     19 N         139.7922  140.8449  166.0799 N.pl3   1  UNL1       -0.2919
     20 C         139.8288  142.3366  165.9268 C.3     1  UNL1        0.0922
     21 C         139.0709  143.1963  164.9590 C.3     1  UNL1        0.0215
     22 C         138.0892  142.7766  163.9055 C.3     1  UNL1        0.0018
     23 C         137.6229  141.3936  163.5594 C.3     1  UNL1        0.0018
     24 C         138.0232  140.0886  164.1814 C.3     1  UNL1        0.0215
     25 C         138.9887  139.8444  165.3032 C.3     1  UNL1        0.0922
     26 N         143.6433  137.1143  170.3813 N.am    1  UNL1       -0.1695
     27 C         143.3277  138.5806  170.3664 C.2     1  UNL1        0.3283
     28 O         143.8959  139.4808  171.4231 O.2     1  UNL1       -0.2498
     29 H         143.2704  136.5234  169.6877 H       1  UNL1        0.2546
     30 N         144.2254  135.2013  172.0401 N.pl3   1  UNL1       -0.1313
     31 C         144.5272  136.5482  171.4529 C.2     1  UNL1        0.3751
     32 N         145.7128  137.3289  171.9373 N.pl3   1  UNL1       -0.2906
     33 H         144.8055  134.8297  172.7435 H       1  UNL1        0.3060
     34 H         146.2929  136.9574  172.6406 H       1  UNL1        0.2545
     35 H         145.9109  138.2130  171.5519 H       1  UNL1        0.2545
@<TRIPOS>BOND
     1    30    31    2
     2    31    32    1
     3    31    26    1
     4    26    27   am
     5    27    28    2
     6    27     1    1
     7     1     2   ar
     8     2     3   ar
     9     3    10    1
    10    10    11   ar
    11    11    12   ar
    12    12    13   ar
    13    13    14   ar
    14    14    15   ar
    15    15    16   ar
    16    16    17   ar
    17    17    18   ar
    18     3     4   ar
    19     4    19    1
    20    19    20    1
    21    20    21    1
    22    21    22    1
    23    22    23    1
    24    23    24    1
    25    24    25    1
    26     4     5   ar
    27     5     6   ar
    28     6     7    1
    29     6     1   ar
    30    18    10   ar
    31    25    19    1
    32    17    12   ar
    33    30    33    1
    34    32    34    1
    35    32    35    1
    36    26    29    1
    37     7     8    1
    38     7     9    1
@<TRIPOS>MOLECULE
*****
 35 38 0 0 0
SMALL
GASTEIGER

@<TRIPOS>ATOM
      1 C         142.2989  139.5491  169.2760 C.ar    1  UNL1        0.1819
      2 N         142.8686  139.9013  167.9338 N.ar    1  UNL1       -0.2306
      3 C         142.0030  140.5603  166.9012 C.ar    1  UNL1        0.1474
      4 C         140.5677  140.8671  167.2107 C.ar    1  UNL1        0.1539
      5 N         139.9981  140.5149  168.5529 N.ar    1  UNL1       -0.2130
      6 C         140.8637  139.8559  169.5856 C.ar    1  UNL1        0.1506
      7 N         140.2941  139.5038  170.9278 N.pl3   1  UNL1       -0.3412
      8 H         139.3520  139.7051  171.1309 H       1  UNL1        0.1438
      9 H         140.8622  139.0712  171.6055 H       1  UNL1        0.1438
     10 C         142.5726  140.9124  165.5590 C.ar    1  UNL1        0.1656
     11 C         143.4159  142.1129  165.2465 C.ar    1  UNL1        0.0422
     12 C         143.7635  142.0684  163.7880 C.ar    1  UNL1        0.0376
     13 C         144.5711  142.9874  162.9202 C.ar    1  UNL1        0.0031
     14 C         144.7501  142.6783  161.4633 C.ar    1  UNL1        0.0002
     15 C         144.1215  141.4503  160.8743 C.ar    1  UNL1        0.0031
     16 C         143.3139  140.5314  161.7422 C.ar    1  UNL1        0.0375
     17 C         143.1349  140.8404  163.1990 C.ar    1  UNL1        0.1454
     18 O         142.3989  140.1260  164.2936 O.2     1  UNL1       -0.4519
     19 N         139.7020  141.5261  166.1781 N.pl3   1  UNL1       -0.2919
     20 C         138.8627  140.6019  165.3465 C.3     1  UNL1        0.0922
     21 C         137.9042  140.9454  164.2450 C.3     1  UNL1        0.0215
     22 C         137.5483  142.2980  163.7031 C.3     1  UNL1        0.0018
     23 C         138.0629  143.6411  164.1287 C.3     1  UNL1        0.0018
     24 C         139.0606  143.9634  165.2014 C.3     1  UNL1        0.0215
     25 C         139.7901  143.0221  166.1135 C.3     1  UNL1        0.0922
     26 N         143.3679  137.4043  170.2795 N.am    1  UNL1       -0.1695
     27 C         143.1646  138.8901  170.3087 C.2     1  UNL1        0.3283
     28 O         143.8270  139.7171  171.3705 O.2     1  UNL1       -0.2498
     29 H         142.9332  136.8616  169.5826 H       1  UNL1        0.2546
     30 N         145.4804  137.4276  171.7919 N.pl3   1  UNL1       -0.1313
     31 C         144.2336  136.7453  171.3122 C.2     1  UNL1        0.3751
     32 N         143.8526  135.4040  171.8651 N.pl3   1  UNL1       -0.2906
     33 H         146.0485  136.9951  172.4697 H       1  UNL1        0.3060
     34 H         144.4208  134.9715  172.5429 H       1  UNL1        0.2545
     35 H         143.0344  134.9562  171.5503 H       1  UNL1        0.2545
@<TRIPOS>BOND
     1    30    31    2
     2    31    32    1
     3    31    26    1
     4    26    27   am
     5    27    28    2
     6    27     1    1
     7     1     2   ar
     8     2     3   ar
     9     3    10    1
    10    10    11   ar
    11    11    12   ar
    12    12    13   ar
    13    13    14   ar
    14    14    15   ar
    15    15    16   ar
    16    16    17   ar
    17    17    18   ar
    18     3     4   ar
    19     4    19    1
    20    19    20    1
    21    20    21    1
    22    21    22    1
    23    22    23    1
    24    23    24    1
    25    24    25    1
    26     4     5   ar
    27     5     6   ar
    28     6     7    1
    29     6     1   ar
    30    18    10   ar
    31    25    19    1
    32    17    12   ar
    33    30    33    1
    34    32    34    1
    35    32    35    1
    36    26    29    1
    37     7     8    1
    38     7     9    1
@<TRIPOS>MOLECULE
*****
 35 38 0 0 0
SMALL
GASTEIGER

@<TRIPOS>ATOM
      1 C         143.1302  142.1415  169.3516 C.ar    1  UNL1        0.1819
      2 N         142.5471  142.6861  168.0813 N.ar    1  UNL1       -0.2306
      3 C         141.8488  141.7680  167.1225 C.ar    1  UNL1        0.1474
      4 C         141.7335  140.3053  167.4340 C.ar    1  UNL1        0.1539
      5 N         142.3165  139.7607  168.7042 N.ar    1  UNL1       -0.2130
      6 C         143.0149  140.6788  169.6630 C.ar    1  UNL1        0.1506
      7 N         143.5979  140.1342  170.9332 N.pl3   1  UNL1       -0.3412
      8 H         143.5222  139.1741  171.1376 H       1  UNL1        0.1438
      9 H         144.0562  140.7368  171.5625 H       1  UNL1        0.1438
     10 C         141.2657  142.3126  165.8523 C.ar    1  UNL1        0.1656
     11 C         140.0536  143.1895  165.7435 C.ar    1  UNL1        0.0422
     12 C         139.8312  143.4948  164.2918 C.ar    1  UNL1        0.0376
     13 C         138.7890  144.3106  163.5860 C.ar    1  UNL1        0.0031
     14 C         138.8214  144.4381  162.0918 C.ar    1  UNL1        0.0002
     15 C         139.8960  143.7499  161.3034 C.ar    1  UNL1        0.0031
     16 C         140.9383  142.9341  162.0093 C.ar    1  UNL1        0.0375
     17 C         140.9058  142.8066  163.5035 C.ar    1  UNL1        0.1454
     18 O         141.7924  142.0760  164.4679 O.2     1  UNL1       -0.4519
     19 N         141.0351  139.3870  166.4752 N.pl3   1  UNL1       -0.2919
     20 C         139.5390  139.3541  166.5783 C.3     1  UNL1        0.0922
     21 C         138.5635  138.5491  165.7718 C.3     1  UNL1        0.0215
     22 C         138.8431  137.5784  164.6630 C.3     1  UNL1        0.0018
     23 C         140.1673  137.1729  164.0868 C.3     1  UNL1        0.0018
     24 C         141.5389  137.6379  164.4772 C.3     1  UNL1        0.0215
     25 C         141.9252  138.6233  165.5401 C.3     1  UNL1        0.0922
     26 N         145.2973  143.3244  170.1604 N.am    1  UNL1       -0.1695
     27 C         143.8285  143.0598  170.3104 C.2     1  UNL1        0.3283
     28 O         143.0580  143.7133  171.4191 O.2     1  UNL1       -0.2498
     29 H         145.8030  142.8955  169.4328 H       1  UNL1        0.2546
     30 N         147.4225  143.9827  171.5022 N.pl3   1  UNL1       -0.1313
     31 C         145.9957  144.2426  171.1192 C.2     1  UNL1        0.3751
     32 N         145.2673  145.4207  171.6950 N.pl3   1  UNL1       -0.2906
     33 H         147.8809  144.5854  172.1315 H       1  UNL1        0.3060
     34 H         145.7256  146.0233  172.3243 H       1  UNL1        0.2545
     35 H         144.3308  145.5912  171.4436 H       1  UNL1        0.2545
@<TRIPOS>BOND
     1    30    31    2
     2    31    32    1
     3    31    26    1
     4    26    27   am
     5    27    28    2
     6    27     1    1
     7     1     2   ar
     8     2     3   ar
     9     3    10    1
    10    10    11   ar
    11    11    12   ar
    12    12    13   ar
    13    13    14   ar
    14    14    15   ar
    15    15    16   ar
    16    16    17   ar
    17    17    18   ar
    18     3     4   ar
    19     4    19    1
    20    19    20    1
    21    20    21    1
    22    21    22    1
    23    22    23    1
    24    23    24    1
    25    24    25    1
    26     4     5   ar
    27     5     6   ar
    28     6     7    1
    29     6     1   ar
    30    18    10   ar
    31    25    19    1
    32    17    12   ar
    33    30    33    1
    34    32    34    1
    35    32    35    1
    36    26    29    1
    37     7     8    1
    38     7     9    1
@<TRIPOS>MOLECULE
*****
 35 38 0 0 0
SMALL
GASTEIGER

@<TRIPOS>ATOM
      1 C         140.7030  143.3929  169.3872 C.ar    1  UNL1        0.1819
      2 N         140.1289  143.1901  168.0163 N.ar    1  UNL1       -0.2306
      3 C         140.9512  142.5311  166.9488 C.ar    1  UNL1        0.1474
      4 C         142.3475  142.0750  167.2522 C.ar    1  UNL1        0.1539
      5 N         142.9216  142.2778  168.6231 N.ar    1  UNL1       -0.2130
      6 C         142.0993  142.9368  169.6906 C.ar    1  UNL1        0.1506
      7 N         142.6734  143.1396  171.0615 N.pl3   1  UNL1       -0.3412
      8 H         143.5899  142.8402  171.2606 H       1  UNL1        0.1438
      9 H         142.1337  143.5721  171.7621 H       1  UNL1        0.1438
     10 C         140.3771  142.3283  165.5780 C.ar    1  UNL1        0.1656
     11 C         139.3737  141.2838  165.1880 C.ar    1  UNL1        0.0422
     12 C         139.0821  141.4443  163.7253 C.ar    1  UNL1        0.0376
     13 C         138.1733  140.6968  162.7951 C.ar    1  UNL1        0.0031
     14 C         138.0878  141.0930  161.3510 C.ar    1  UNL1        0.0002
     15 C         138.9111  142.2367  160.8370 C.ar    1  UNL1        0.0031
     16 C         139.8199  142.9842  161.7672 C.ar    1  UNL1        0.0375
     17 C         139.9054  142.5880  163.2114 C.ar    1  UNL1        0.1454
     18 O         140.7057  143.1343  164.3564 O.2     1  UNL1       -0.4519
     19 N         143.1699  141.4159  166.1847 N.pl3   1  UNL1       -0.2919
     20 C         144.0079  142.3363  165.3477 C.3     1  UNL1        0.0922
     21 C         144.9286  141.9917  164.2146 C.3     1  UNL1        0.0215
     22 C         145.2384  140.6418  163.6388 C.3     1  UNL1        0.0018
     23 C         144.7043  139.3030  164.0538 C.3     1  UNL1        0.0018
     24 C         143.7284  138.9835  165.1471 C.3     1  UNL1        0.0215
     25 C         143.0455  139.9238  166.0955 C.3     1  UNL1        0.0922
     26 N         139.5950  145.5226  170.3807 N.am    1  UNL1       -0.1695
     27 C         139.8806  144.0520  170.4547 C.2     1  UNL1        0.3283
     28 O         139.3439  143.2402  171.5962 O.2     1  UNL1       -0.2498
     29 H         139.9473  146.0554  169.6314 H       1  UNL1        0.2546
     30 N         139.0693  147.5934  171.8590 N.pl3   1  UNL1       -0.1313
     31 C         138.7726  146.1816  171.4482 C.2     1  UNL1        0.3751
     32 N         137.6537  145.4289  172.1048 N.pl3   1  UNL1       -0.2906
     33 H         138.5296  148.0260  172.5596 H       1  UNL1        0.3060
     34 H         137.1139  145.8614  172.8054 H       1  UNL1        0.2545
     35 H         137.4590  144.5023  171.8351 H       1  UNL1        0.2545
@<TRIPOS>BOND
     1    30    31    2
     2    31    32    1
     3    31    26    1
     4    26    27   am
     5    27    28    2
     6    27     1    1
     7     1     2   ar
     8     2     3   ar
     9     3    10    1
    10    10    11   ar
    11    11    12   ar
    12    12    13   ar
    13    13    14   ar
    14    14    15   ar
    15    15    16   ar
    16    16    17   ar
    17    17    18   ar
    18     3     4   ar
    19     4    19    1
    20    19    20    1
    21    20    21    1
    22    21    22    1
    23    22    23    1
    24    23    24    1
    25    24    25    1
    26     4     5   ar
    27     5     6   ar
    28     6     7    1
    29     6     1   ar
    30    18    10   ar
    31    25    19    1
    32    17    12   ar
    33    30    33    1
    34    32    34    1
    35    32    35    1
    36    26    29    1
    37     7     8    1
    38     7     9    1
@<TRIPOS>MOLECULE
*****
 35 38 0 0 0
SMALL
GASTEIGER

@<TRIPOS>ATOM
      1 C         144.3507  141.1253  157.7238 C.ar    1  UNL1        0.1819
      2 N         144.1362  140.4939  159.0674 N.ar    1  UNL1       -0.2306
      3 C         143.6670  141.3285  160.2221 C.ar    1  UNL1        0.1474
      4 C         143.4122  142.7945  160.0330 C.ar    1  UNL1        0.1539
      5 N         143.6267  143.4259  158.6894 N.ar    1  UNL1       -0.2130
      6 C         144.0959  142.5913  157.5348 C.ar    1  UNL1        0.1506
      7 N         144.3103  143.2227  156.1912 N.pl3   1  UNL1       -0.3412
      8 H         144.1431  144.1849  156.0671 H       1  UNL1        0.1438
      9 H         144.6183  142.6749  155.4333 H       1  UNL1        0.1438
     10 C         143.4526  140.6971  161.5657 C.ar    1  UNL1        0.1656
     11 C         144.5275  140.2489  162.5109 C.ar    1  UNL1        0.0422
     12 C         143.8648  139.6778  163.7294 C.ar    1  UNL1        0.0376
     13 C         144.4214  139.0834  164.9891 C.ar    1  UNL1        0.0031
     14 C         143.4934  138.5843  166.0566 C.ar    1  UNL1        0.0002
     15 C         142.0088  138.6796  165.8645 C.ar    1  UNL1        0.0031
     16 C         141.4522  139.2740  164.6048 C.ar    1  UNL1        0.0375
     17 C         142.3803  139.7731  163.5373 C.ar    1  UNL1        0.1454
     18 O         142.1255  140.4031  162.2000 O.2     1  UNL1       -0.4519
     19 N         142.9430  143.6293  161.1877 N.pl3   1  UNL1       -0.2919
     20 C         141.4947  144.0189  161.1629 C.3     1  UNL1        0.0922
     21 C         140.7298  144.8395  162.1587 C.3     1  UNL1        0.0215
     22 C         141.2243  145.4731  163.4252 C.3     1  UNL1        0.0018
     23 C         142.6058  145.4426  164.0087 C.3     1  UNL1        0.0018
     24 C         143.8340  144.7709  163.4698 C.3     1  UNL1        0.0215
     25 C         143.9841  143.9639  162.2143 C.3     1  UNL1        0.0922
     26 N         144.1539  138.9798  156.2717 N.am    1  UNL1       -0.1695
     27 C         144.8199  140.2905  156.5692 C.2     1  UNL1        0.3283
     28 O         145.9551  140.7666  155.7121 O.2     1  UNL1       -0.2498
     29 H         143.4088  138.6674  156.8343 H       1  UNL1        0.2546
     30 N         144.8343  136.6707  155.2945 N.pl3   1  UNL1       -0.1313
     31 C         144.6231  138.1451  155.1171 C.2     1  UNL1        0.3751
     32 N         144.8812  138.7848  153.7851 N.pl3   1  UNL1       -0.2906
     33 H         145.1423  136.1228  154.5367 H       1  UNL1        0.3060
     34 H         145.1892  138.2370  153.0273 H       1  UNL1        0.2545
     35 H         144.7426  139.7525  153.6687 H       1  UNL1        0.2545
@<TRIPOS>BOND
     1    30    31    2
     2    31    32    1
     3    31    26    1
     4    26    27   am
     5    27    28    2
     6    27     1    1
     7     1     2   ar
     8     2     3   ar
     9     3    10    1
    10    10    11   ar
    11    11    12   ar
    12    12    13   ar
    13    13    14   ar
    14    14    15   ar
    15    15    16   ar
    16    16    17   ar
    17    17    18   ar
    18     3     4   ar
    19     4    19    1
    20    19    20    1
    21    20    21    1
    22    21    22    1
    23    22    23    1
    24    23    24    1
    25    24    25    1
    26     4     5   ar
    27     5     6   ar
    28     6     7    1
    29     6     1   ar
    30    18    10   ar
    31    25    19    1
    32    17    12   ar
    33    30    33    1
    34    32    34    1
    35    32    35    1
    36    26    29    1
    37     7     8    1
    38     7     9    1
@<TRIPOS>MOLECULE
*****
 35 38 0 0 0
SMALL
GASTEIGER

@<TRIPOS>ATOM
      1 C         143.2029  143.2107  158.2091 C.ar    1  UNL1        0.1819
      2 N         143.0411  142.1028  159.2073 N.ar    1  UNL1       -0.2306
      3 C         142.1420  142.2875  160.3936 C.ar    1  UNL1        0.1474
      4 C         141.4046  143.5801  160.5817 C.ar    1  UNL1        0.1539
      5 N         141.5664  144.6880  159.5835 N.ar    1  UNL1       -0.2130
      6 C         142.4655  144.5033  158.3972 C.ar    1  UNL1        0.1506
      7 N         142.6273  145.6112  157.3990 N.pl3   1  UNL1       -0.3412
      8 H         142.1433  146.4596  157.5225 H       1  UNL1        0.1438
      9 H         143.2175  145.4900  156.6204 H       1  UNL1        0.1438
     10 C         141.9802  141.1796  161.3918 C.ar    1  UNL1        0.1656
     11 C         141.1653  139.9345  161.2027 C.ar    1  UNL1        0.0422
     12 C         141.2864  139.1076  162.4484 C.ar    1  UNL1        0.0376
     13 C         140.7015  137.7812  162.8333 C.ar    1  UNL1        0.0031
     14 C         141.0062  137.1887  164.1772 C.ar    1  UNL1        0.0002
     15 C         141.8959  137.9228  165.1362 C.ar    1  UNL1        0.0031
     16 C         142.4809  139.2493  164.7512 C.ar    1  UNL1        0.0375
     17 C         142.1761  139.8417  163.4073 C.ar    1  UNL1        0.1454
     18 O         142.6049  141.1222  162.7543 O.2     1  UNL1       -0.4519
     19 N         140.5054  143.7648  161.7681 N.pl3   1  UNL1       -0.2919
     20 C         141.1480  144.3615  162.9851 C.3     1  UNL1        0.0922
     21 C         140.5264  144.6692  164.3151 C.3     1  UNL1        0.0215
     22 C         139.1088  144.4562  164.7566 C.3     1  UNL1        0.0018
     23 C         137.9626  143.8829  163.9772 C.3     1  UNL1        0.0018
     24 C         137.9509  143.3811  162.5637 C.3     1  UNL1        0.0215
     25 C         139.0826  143.3285  161.5805 C.3     1  UNL1        0.0922
     26 N         145.5330  142.6224  157.2218 N.am    1  UNL1       -0.1695
     27 C         144.1021  143.0260  157.0227 C.2     1  UNL1        0.3283
     28 O         143.5704  143.2448  155.6373 O.2     1  UNL1       -0.2498
     29 H         145.8820  142.4788  158.1311 H       1  UNL1        0.2546
     30 N         147.0426  141.0957  155.7588 N.pl3   1  UNL1       -0.1313
     31 C         146.4322  142.4377  156.0355 C.2     1  UNL1        0.3751
     32 N         146.7209  143.5949  155.1258 N.pl3   1  UNL1       -0.2906
     33 H         147.6328  140.9744  154.9802 H       1  UNL1        0.3060
     34 H         147.3111  143.4736  154.3472 H       1  UNL1        0.2545
     35 H         146.3203  144.4756  155.3074 H       1  UNL1        0.2545
@<TRIPOS>BOND
     1    30    31    2
     2    31    32    1
     3    31    26    1
     4    26    27   am
     5    27    28    2
     6    27     1    1
     7     1     2   ar
     8     2     3   ar
     9     3    10    1
    10    10    11   ar
    11    11    12   ar
    12    12    13   ar
    13    13    14   ar
    14    14    15   ar
    15    15    16   ar
    16    16    17   ar
    17    17    18   ar
    18     3     4   ar
    19     4    19    1
    20    19    20    1
    21    20    21    1
    22    21    22    1
    23    22    23    1
    24    23    24    1
    25    24    25    1
    26     4     5   ar
    27     5     6   ar
    28     6     7    1
    29     6     1   ar
    30    18    10   ar
    31    25    19    1
    32    17    12   ar
    33    30    33    1
    34    32    34    1
    35    32    35    1
    36    26    29    1
    37     7     8    1
    38     7     9    1
@<TRIPOS>MOLECULE
*****
 35 38 0 0 0
SMALL
GASTEIGER

@<TRIPOS>ATOM
      1 C         142.9223  143.2039  158.3618 C.ar    1  UNL1        0.1819
      2 N         142.6552  142.0629  159.2982 N.ar    1  UNL1       -0.2306
      3 C         141.7922  142.2712  160.5072 C.ar    1  UNL1        0.1474
      4 C         141.1962  143.6204  160.7798 C.ar    1  UNL1        0.1539
      5 N         141.4632  144.7613  159.8433 N.ar    1  UNL1       -0.2130
      6 C         142.3263  144.5531  158.6343 C.ar    1  UNL1        0.1506
      7 N         142.5933  145.6940  157.6979 N.pl3   1  UNL1       -0.3412
      8 H         142.2021  146.5796  157.8768 H       1  UNL1        0.1438
      9 H         143.1598  145.5573  156.9044 H       1  UNL1        0.1438
     10 C         141.5251  141.1302  161.4436 C.ar    1  UNL1        0.1656
     11 C         142.5234  140.4927  162.3640 C.ar    1  UNL1        0.0422
     12 C         141.8282  139.3949  163.1133 C.ar    1  UNL1        0.0376
     13 C         142.3109  138.4274  164.1528 C.ar    1  UNL1        0.0031
     14 C         141.3656  137.4188  164.7352 C.ar    1  UNL1        0.0002
     15 C         139.9376  137.3778  164.2779 C.ar    1  UNL1        0.0031
     16 C         139.4549  138.3453  163.2384 C.ar    1  UNL1        0.0375
     17 C         140.4002  139.3539  162.6561 C.ar    1  UNL1        0.1454
     18 O         140.2129  140.4264  161.6242 O.2     1  UNL1       -0.4519
     19 N         140.3330  143.8287  161.9888 N.pl3   1  UNL1       -0.2919
     20 C         141.0508  144.2543  163.2353 C.3     1  UNL1        0.0922
     21 C         140.4791  144.5402  164.5923 C.3     1  UNL1        0.0215
     22 C         139.0485  144.4711  165.0379 C.3     1  UNL1        0.0018
     23 C         137.8363  144.0990  164.2367 C.3     1  UNL1        0.0018
     24 C         137.7552  143.7042  162.7919 C.3     1  UNL1        0.0215
     25 C         138.8664  143.5839  161.7914 C.3     1  UNL1        0.0922
     26 N         145.1981  142.5175  157.3131 N.am    1  UNL1       -0.1695
     27 C         143.7854  142.9956  157.1527 C.2     1  UNL1        0.3283
     28 O         143.2358  143.2654  155.7834 O.2     1  UNL1       -0.2498
     29 H         145.5588  142.3404  158.2119 H       1  UNL1        0.2546
     30 N         146.2794  143.4336  155.1356 N.pl3   1  UNL1       -0.1313
     31 C         146.0612  142.3092  156.1041 C.2     1  UNL1        0.3751
     32 N         146.7061  140.9764  155.8636 N.pl3   1  UNL1       -0.2906
     33 H         146.8459  143.2969  154.3421 H       1  UNL1        0.3060
     34 H         147.2726  140.8397  155.0700 H       1  UNL1        0.2545
     35 H         146.5629  140.2384  156.4992 H       1  UNL1        0.2545
@<TRIPOS>BOND
     1    30    31    2
     2    31    32    1
     3    31    26    1
     4    26    27   am
     5    27    28    2
     6    27     1    1
     7     1     2   ar
     8     2     3   ar
     9     3    10    1
    10    10    11   ar
    11    11    12   ar
    12    12    13   ar
    13    13    14   ar
    14    14    15   ar
    15    15    16   ar
    16    16    17   ar
    17    17    18   ar
    18     3     4   ar
    19     4    19    1
    20    19    20    1
    21    20    21    1
    22    21    22    1
    23    22    23    1
    24    23    24    1
    25    24    25    1
    26     4     5   ar
    27     5     6   ar
    28     6     7    1
    29     6     1   ar
    30    18    10   ar
    31    25    19    1
    32    17    12   ar
    33    30    33    1
    34    32    34    1
    35    32    35    1
    36    26    29    1
    37     7     8    1
    38     7     9    1
@<TRIPOS>MOLECULE
*****
 35 38 0 0 0
SMALL
GASTEIGER

@<TRIPOS>ATOM
      1 C         137.7827  141.7713  157.1333 C.ar    1  UNL1        0.1819
      2 N         137.9921  142.4034  158.4774 N.ar    1  UNL1       -0.2306
      3 C         138.5030  141.5797  159.6222 C.ar    1  UNL1        0.1474
      4 C         138.8046  140.1240  159.4228 C.ar    1  UNL1        0.1539
      5 N         138.5952  139.4919  158.0787 N.ar    1  UNL1       -0.2130
      6 C         138.0843  140.3156  156.9339 C.ar    1  UNL1        0.1506
      7 N         137.8749  139.6835  155.5898 N.pl3   1  UNL1       -0.3412
      8 H         138.0728  138.7280  155.4590 H       1  UNL1        0.1438
      9 H         137.5395  140.2241  154.8385 H       1  UNL1        0.1438
     10 C         138.7124  142.2118  160.9663 C.ar    1  UNL1        0.1656
     11 C         140.0297  142.3895  161.6614 C.ar    1  UNL1        0.0422
     12 C         139.7727  143.0647  162.9760 C.ar    1  UNL1        0.0376
     13 C         140.6921  143.4923  164.0814 C.ar    1  UNL1        0.0031
     14 C         140.1354  144.1594  165.3040 C.ar    1  UNL1        0.0002
     15 C         138.6593  144.3990  165.4213 C.ar    1  UNL1        0.0031
     16 C         137.7399  143.9714  164.3160 C.ar    1  UNL1        0.0375
     17 C         138.2966  143.3042  163.0933 C.ar    1  UNL1        0.1454
     18 O         137.6414  142.7771  161.8512 O.2     1  UNL1       -0.4519
     19 N         139.3155  139.3002  160.5676 N.pl3   1  UNL1       -0.2919
     20 C         138.2933  138.9038  161.5913 C.3     1  UNL1        0.0922
     21 C         138.4842  138.0911  162.8376 C.3     1  UNL1        0.0215
     22 C         139.7444  137.4740  163.3678 C.3     1  UNL1        0.0018
     23 C         141.1249  137.5173  162.7828 C.3     1  UNL1        0.0018
     24 C         141.5862  138.1883  161.5231 C.3     1  UNL1        0.0215
     25 C         140.7810  138.9818  160.5371 C.3     1  UNL1        0.0922
     26 N         137.9157  143.9106  155.6650 N.am    1  UNL1       -0.1695
     27 C         137.2718  142.5951  155.9885 C.2     1  UNL1        0.3283
     28 O         136.1169  142.1033  155.1673 O.2     1  UNL1       -0.2498
     29 H         138.6737  144.2334  156.2040 H       1  UNL1        0.2546
     30 N         137.3970  146.2312  154.6181 N.pl3   1  UNL1       -0.1313
     31 C         137.4048  144.7344  154.5203 C.2     1  UNL1        0.3751
     32 N         136.9017  144.0614  153.2778 N.pl3   1  UNL1       -0.2906
     33 H         137.0617  146.7719  153.8668 H       1  UNL1        0.3060
     34 H         136.5663  144.6020  152.5264 H       1  UNL1        0.2545
     35 H         136.9068  143.0790  153.2136 H       1  UNL1        0.2545
@<TRIPOS>BOND
     1    30    31    2
     2    31    32    1
     3    31    26    1
     4    26    27   am
     5    27    28    2
     6    27     1    1
     7     1     2   ar
     8     2     3   ar
     9     3    10    1
    10    10    11   ar
    11    11    12   ar
    12    12    13   ar
    13    13    14   ar
    14    14    15   ar
    15    15    16   ar
    16    16    17   ar
    17    17    18   ar
    18     3     4   ar
    19     4    19    1
    20    19    20    1
    21    20    21    1
    22    21    22    1
    23    22    23    1
    24    23    24    1
    25    24    25    1
    26     4     5   ar
    27     5     6   ar
    28     6     7    1
    29     6     1   ar
    30    18    10   ar
    31    25    19    1
    32    17    12   ar
    33    30    33    1
    34    32    34    1
    35    32    35    1
    36    26    29    1
    37     7     8    1
    38     7     9    1
