@<TRIPOS>MOLECULE
*****
 28 32 0 0 0
SMALL
GASTEIGER

@<TRIPOS>ATOM
      1 C         138.8537  137.6914  163.7504 C.3     1  UNL1        0.0883
      2 N         139.1061  138.4278  165.0327 N.3     1  UNL1       -0.2715
      3 C         140.3523  139.2467  165.1945 C.3     1  UNL1        0.0725
      4 C         140.6046  139.9830  166.4768 C.3     1  UNL1        0.0214
      5 C         139.6107  139.9003  167.5972 C.3     1  UNL1        0.0216
      6 C         138.7126  139.9119  168.7986 C.3     1  UNL1        0.0088
      7 C         139.3523  140.7731  169.8472 C.3     1  UNL1        0.0264
      8 C         140.6457  141.2937  169.2937 C.ar    1  UNL1       -0.0261
      9 C         141.6986  142.1892  169.8763 C.ar    1  UNL1       -0.0046
     10 C         142.9111  142.5453  169.0684 C.ar    1  UNL1       -0.0003
     11 C         143.0709  142.0059  167.6778 C.ar    1  UNL1       -0.0003
     12 C         142.0180  141.1104  167.0953 C.ar    1  UNL1       -0.0046
     13 C         140.8053  140.7543  167.9032 C.ar    1  UNL1       -0.0266
     14 C         138.3645  139.0813  167.4353 C.3     1  UNL1        0.0214
     15 C         138.1122  138.3451  166.1531 C.3     1  UNL1        0.0725
     16 O         140.5860  138.8137  156.2344 O.3     1  UNL1       -0.5055
     17 C         139.8169  139.2021  157.4623 C.ar    1  UNL1        0.1333
     18 C         138.8561  140.3529  157.4126 C.ar    1  UNL1        0.0363
     19 C         138.0870  140.7412  158.6405 C.ar    1  UNL1       -0.0001
     20 C         138.2787  139.9788  159.9180 C.ar    1  UNL1       -0.0101
     21 C         139.2395  138.8280  159.9676 C.ar    1  UNL1       -0.0204
     22 C         140.0086  138.4396  158.7398 C.ar    1  UNL1        0.0321
     23 C         139.4312  138.0655  161.2450 C.3     1  UNL1        0.0433
     24 C         138.6620  138.4539  162.4729 C.3     1  UNL1        0.0748
     25 N         137.7012  139.6047  162.4233 N.3     1  UNL1       -0.2934
     26 C         137.5095  140.3672  161.1458 C.3     1  UNL1        0.0953
     27 H         140.4663  139.2900  155.4364 H       1  UNL1        0.2922
     28 H         138.0114  140.2777  163.1242 H       1  UNL1        0.1236
@<TRIPOS>BOND
     1    16    17    1
     2    17    18   ar
     3    18    19   ar
     4    19    20   ar
     5    20    21   ar
     6    21    22   ar
     7    21    23    1
     8    23    24    1
     9    24     1    1
    10     1     2    1
    11     2     3    1
    12     3     4    1
    13     4     5    1
    14     5     6    1
    15     6     7    1
    16     7     8    1
    17     8     9   ar
    18     9    10   ar
    19    10    11   ar
    20    11    12   ar
    21    12    13   ar
    22     5    14    1
    23    14    15    1
    24    24    25    1
    25    25    26    1
    26    22    17   ar
    27    15     2    1
    28    26    20    1
    29    13     5    1
    30    13     8   ar
    31    16    27    1
    32    25    28    1
@<TRIPOS>MOLECULE
*****
 28 32 0 0 0
SMALL
GASTEIGER

@<TRIPOS>ATOM
      1 C         137.9826  138.7366  166.6542 C.3     1  UNL1        0.0883
      2 N         138.3958  138.8617  165.2176 N.3     1  UNL1       -0.2715
      3 C         138.1475  140.1407  164.4745 C.3     1  UNL1        0.0725
      4 C         138.5607  140.2658  163.0380 C.3     1  UNL1        0.0214
      5 C         139.2222  139.1118  162.3446 C.3     1  UNL1        0.0216
      6 C         139.8900  138.0488  161.5235 C.3     1  UNL1        0.0088
      7 C         140.1207  138.6019  160.1483 C.3     1  UNL1        0.0264
      8 C         139.5954  140.0066  160.1196 C.ar    1  UNL1       -0.0261
      9 C         139.5510  141.0395  159.0328 C.ar    1  UNL1       -0.0046
     10 C         138.9513  142.3875  159.3033 C.ar    1  UNL1       -0.0003
     11 C         138.3960  142.7027  160.6606 C.ar    1  UNL1       -0.0003
     12 C         138.4404  141.6698  161.7474 C.ar    1  UNL1       -0.0046
     13 C         139.0401  140.3218  161.4769 C.ar    1  UNL1       -0.0266
     14 C         139.4705  137.8327  163.0878 C.3     1  UNL1        0.0214
     15 C         139.0573  137.7077  164.5243 C.3     1  UNL1        0.0725
     16 O         144.1982  142.8843  168.8706 O.3     1  UNL1       -0.5055
     17 C         142.8863  142.2347  169.1974 C.ar    1  UNL1        0.1333
     18 C         142.3342  142.3180  170.5896 C.ar    1  UNL1        0.0363
     19 C         141.0222  141.6683  170.9163 C.ar    1  UNL1       -0.0001
     20 C         140.2623  140.9354  169.8508 C.ar    1  UNL1       -0.0101
     21 C         140.8144  140.8521  168.4585 C.ar    1  UNL1       -0.0204
     22 C         142.1263  141.5017  168.1318 C.ar    1  UNL1        0.0321
     23 C         140.0545  140.1192  167.3930 C.3     1  UNL1        0.0433
     24 C         138.7425  139.4695  167.7197 C.3     1  UNL1        0.0748
     25 N         138.1905  139.5528  169.1120 N.3     1  UNL1       -0.2934
     26 C         138.9504  140.2858  170.1775 C.3     1  UNL1        0.0953
     27 H         144.6729  143.3422  169.5362 H       1  UNL1        0.2922
     28 H         138.0736  138.5942  169.4402 H       1  UNL1        0.1236
@<TRIPOS>BOND
     1    16    17    1
     2    17    18   ar
     3    18    19   ar
     4    19    20   ar
     5    20    21   ar
     6    21    22   ar
     7    21    23    1
     8    23    24    1
     9    24     1    1
    10     1     2    1
    11     2     3    1
    12     3     4    1
    13     4     5    1
    14     5     6    1
    15     6     7    1
    16     7     8    1
    17     8     9   ar
    18     9    10   ar
    19    10    11   ar
    20    11    12   ar
    21    12    13   ar
    22     5    14    1
    23    14    15    1
    24    24    25    1
    25    25    26    1
    26    22    17   ar
    27    15     2    1
    28    26    20    1
    29    13     5    1
    30    13     8   ar
    31    16    27    1
    32    25    28    1
@<TRIPOS>MOLECULE
*****
 28 32 0 0 0
SMALL
GASTEIGER

@<TRIPOS>ATOM
      1 C         143.8355  138.9881  165.1255 C.3     1  UNL1        0.0883
      2 N         143.8520  139.4340  163.6933 N.3     1  UNL1       -0.2715
      3 C         143.4229  138.4905  162.6091 C.3     1  UNL1        0.0725
      4 C         143.4394  138.9363  161.1770 C.3     1  UNL1        0.0214
      5 C         143.8850  140.3258  160.8292 C.3     1  UNL1        0.0216
      6 C         144.3032  141.6775  160.3314 C.3     1  UNL1        0.0088
      7 C         144.1628  141.6854  158.8379 C.3     1  UNL1        0.0264
      8 C         143.6578  140.3384  158.4127 C.ar    1  UNL1       -0.0261
      9 C         143.3322  139.7684  157.0640 C.ar    1  UNL1       -0.0046
     10 C         142.8349  138.3583  156.9459 C.ar    1  UNL1       -0.0003
     11 C         142.6632  137.5179  158.1766 C.ar    1  UNL1       -0.0003
     12 C         142.9888  138.0879  159.5253 C.ar    1  UNL1       -0.0046
     13 C         143.4861  139.4981  159.6434 C.ar    1  UNL1       -0.0266
     14 C         144.3140  141.2693  161.9134 C.3     1  UNL1        0.0214
     15 C         144.2975  140.8234  163.3455 C.3     1  UNL1        0.0725
     16 O         140.7612  140.5109  172.1240 O.3     1  UNL1       -0.5055
     17 C         140.5897  140.2858  170.6510 C.ar    1  UNL1        0.1333
     18 C         139.2221  140.3433  170.0377 C.ar    1  UNL1        0.0363
     19 C         139.0506  140.1183  168.5646 C.ar    1  UNL1       -0.0001
     20 C         140.2468  139.8357  167.7048 C.ar    1  UNL1       -0.0101
     21 C         141.6145  139.7783  168.3181 C.ar    1  UNL1       -0.0204
     22 C         141.7860  140.0033  169.7912 C.ar    1  UNL1        0.0321
     23 C         142.8107  139.4957  167.4584 C.3     1  UNL1        0.0433
     24 C         142.6393  139.2707  165.9852 C.3     1  UNL1        0.0748
     25 N         141.2716  139.3282  165.3719 N.3     1  UNL1       -0.2934
     26 C         140.0754  139.6107  166.2318 C.3     1  UNL1        0.0953
     27 H         140.0140  140.6874  172.6611 H       1  UNL1        0.2922
     28 H         141.1091  138.4236  164.9294 H       1  UNL1        0.1236
@<TRIPOS>BOND
     1    16    17    1
     2    17    18   ar
     3    18    19   ar
     4    19    20   ar
     5    20    21   ar
     6    21    22   ar
     7    21    23    1
     8    23    24    1
     9    24     1    1
    10     1     2    1
    11     2     3    1
    12     3     4    1
    13     4     5    1
    14     5     6    1
    15     6     7    1
    16     7     8    1
    17     8     9   ar
    18     9    10   ar
    19    10    11   ar
    20    11    12   ar
    21    12    13   ar
    22     5    14    1
    23    14    15    1
    24    24    25    1
    25    25    26    1
    26    22    17   ar
    27    15     2    1
    28    26    20    1
    29    13     5    1
    30    13     8   ar
    31    16    27    1
    32    25    28    1
@<TRIPOS>MOLECULE
*****
 28 32 0 0 0
SMALL
GASTEIGER

@<TRIPOS>ATOM
      1 C         141.7097  138.6391  158.2570 C.3     1  UNL1        0.0883
      2 N         141.8751  137.3762  157.4647 N.3     1  UNL1       -0.2715
      3 C         142.9034  136.3636  157.8735 C.3     1  UNL1        0.0725
      4 C         143.0687  135.1007  157.0813 C.3     1  UNL1        0.0214
      5 C         142.2058  134.8504  155.8802 C.3     1  UNL1        0.0216
      6 C         141.4195  134.4642  154.6625 C.3     1  UNL1        0.0088
      7 C         141.9142  133.1270  154.1962 C.3     1  UNL1        0.0264
      8 C         143.0062  132.6868  155.1257 C.ar    1  UNL1       -0.0261
      9 C         143.8597  131.4538  155.1589 C.ar    1  UNL1       -0.0046
     10 C         144.8934  131.2859  156.2327 C.ar    1  UNL1       -0.0003
     11 C         145.0736  132.3510  157.2735 C.ar    1  UNL1       -0.0003
     12 C         144.2201  133.5840  157.2403 C.ar    1  UNL1       -0.0046
     13 C         143.1864  133.7519  156.1664 C.ar    1  UNL1       -0.0266
     14 C         141.1775  135.8630  155.4714 C.3     1  UNL1        0.0214
     15 C         141.0121  137.1259  156.2636 C.3     1  UNL1        0.0725
     16 O         146.1740  141.6969  163.8669 O.3     1  UNL1       -0.5055
     17 C         145.1178  140.7244  163.4327 C.ar    1  UNL1        0.1333
     18 C         144.4935  139.7985  164.4342 C.ar    1  UNL1        0.0363
     19 C         143.4373  138.8259  163.9999 C.ar    1  UNL1       -0.0001
     20 C         143.0054  138.7792  162.5642 C.ar    1  UNL1       -0.0101
     21 C         143.6297  139.7051  161.5627 C.ar    1  UNL1       -0.0204
     22 C         144.6859  140.6776  161.9969 C.ar    1  UNL1        0.0321
     23 C         143.1978  139.6584  160.1270 C.3     1  UNL1        0.0433
     24 C         142.1416  138.6858  159.6927 C.3     1  UNL1        0.0748
     25 N         141.5173  137.7599  160.6942 N.3     1  UNL1       -0.2934
     26 C         141.9492  137.8066  162.1300 C.3     1  UNL1        0.0953
     27 H         146.4438  141.7261  164.7637 H       1  UNL1        0.2922
     28 H         141.6908  136.8101  160.3653 H       1  UNL1        0.1236
@<TRIPOS>BOND
     1    16    17    1
     2    17    18   ar
     3    18    19   ar
     4    19    20   ar
     5    20    21   ar
     6    21    22   ar
     7    21    23    1
     8    23    24    1
     9    24     1    1
    10     1     2    1
    11     2     3    1
    12     3     4    1
    13     4     5    1
    14     5     6    1
    15     6     7    1
    16     7     8    1
    17     8     9   ar
    18     9    10   ar
    19    10    11   ar
    20    11    12   ar
    21    12    13   ar
    22     5    14    1
    23    14    15    1
    24    24    25    1
    25    25    26    1
    26    22    17   ar
    27    15     2    1
    28    26    20    1
    29    13     5    1
    30    13     8   ar
    31    16    27    1
    32    25    28    1
@<TRIPOS>MOLECULE
*****
 28 32 0 0 0
SMALL
GASTEIGER

@<TRIPOS>ATOM
      1 C         144.1722  142.3640  165.1596 C.3     1  UNL1        0.0883
      2 N         143.9453  142.5929  163.6946 N.3     1  UNL1       -0.2715
      3 C         142.8045  143.4530  163.2377 C.3     1  UNL1        0.0725
      4 C         142.5777  143.6819  161.7728 C.3     1  UNL1        0.0214
      5 C         143.4917  143.0507  160.7647 C.3     1  UNL1        0.0216
      6 C         144.3181  142.4887  159.6461 C.3     1  UNL1        0.0088
      7 C         143.7357  142.9725  158.3511 C.3     1  UNL1        0.0264
      8 C         142.5494  143.8335  158.6694 C.ar    1  UNL1       -0.0261
      9 C         141.5870  144.5798  157.7937 C.ar    1  UNL1       -0.0046
     10 C         140.4738  145.3743  158.4096 C.ar    1  UNL1       -0.0003
     11 C         140.3229  145.4227  159.9012 C.ar    1  UNL1       -0.0003
     12 C         141.2853  144.6765  160.7769 C.ar    1  UNL1       -0.0046
     13 C         142.3985  143.8819  160.1610 C.ar    1  UNL1       -0.0266
     14 C         144.6325  142.1906  161.2216 C.3     1  UNL1        0.0214
     15 C         144.8593  141.9617  162.6865 C.3     1  UNL1        0.0725
     16 O         140.4092  142.1886  171.9830 O.3     1  UNL1       -0.5055
     17 C         140.5522  141.7180  170.5660 C.ar    1  UNL1        0.1333
     18 C         139.5839  140.7184  170.0063 C.ar    1  UNL1        0.0363
     19 C         139.7270  140.2478  168.5891 C.ar    1  UNL1       -0.0001
     20 C         140.8383  140.7769  167.7318 C.ar    1  UNL1       -0.0101
     21 C         141.8066  141.7765  168.2915 C.ar    1  UNL1       -0.0204
     22 C         141.6635  142.2470  169.7085 C.ar    1  UNL1        0.0321
     23 C         142.9178  142.3055  167.4341 C.3     1  UNL1        0.0433
     24 C         143.0609  141.8350  166.0170 C.3     1  UNL1        0.0748
     25 N         142.0926  140.8353  165.4573 N.3     1  UNL1       -0.2934
     26 C         140.9813  140.3063  166.3147 C.3     1  UNL1        0.0953
     27 H         139.7150  141.8581  172.5186 H       1  UNL1        0.2922
     28 H         142.6417  140.0299  165.1568 H       1  UNL1        0.1236
@<TRIPOS>BOND
     1    16    17    1
     2    17    18   ar
     3    18    19   ar
     4    19    20   ar
     5    20    21   ar
     6    21    22   ar
     7    21    23    1
     8    23    24    1
     9    24     1    1
    10     1     2    1
    11     2     3    1
    12     3     4    1
    13     4     5    1
    14     5     6    1
    15     6     7    1
    16     7     8    1
    17     8     9   ar
    18     9    10   ar
    19    10    11   ar
    20    11    12   ar
    21    12    13   ar
    22     5    14    1
    23    14    15    1
    24    24    25    1
    25    25    26    1
    26    22    17   ar
    27    15     2    1
    28    26    20    1
    29    13     5    1
    30    13     8   ar
    31    16    27    1
    32    25    28    1
@<TRIPOS>MOLECULE
*****
 28 32 0 0 0
SMALL
GASTEIGER

@<TRIPOS>ATOM
      1 C         140.9552  138.7120  157.9372 C.3     1  UNL1        0.0883
      2 N         140.9489  138.5674  159.4302 N.3     1  UNL1       -0.2715
      3 C         142.1917  138.8604  160.2173 C.3     1  UNL1        0.0725
      4 C         142.1854  138.7158  161.7103 C.3     1  UNL1        0.0214
      5 C         140.9363  138.2781  162.4161 C.3     1  UNL1        0.0216
      6 C         139.7687  137.8517  163.2557 C.3     1  UNL1        0.0088
      7 C         140.2073  137.8445  164.6903 C.3     1  UNL1        0.0264
      8 C         141.6460  138.2665  164.7372 C.ar    1  UNL1       -0.0261
      9 C         142.6040  138.4413  165.8781 C.ar    1  UNL1       -0.0046
     10 C         144.0124  138.8841  165.6136 C.ar    1  UNL1       -0.0003
     11 C         144.4631  139.1521  164.2081 C.ar    1  UNL1       -0.0003
     12 C         143.5051  138.9772  163.0672 C.ar    1  UNL1       -0.0046
     13 C         142.0965  138.5344  163.3318 C.ar    1  UNL1       -0.0266
     14 C         139.6935  137.9850  161.6290 C.3     1  UNL1        0.0214
     15 C         139.6999  138.1296  160.1361 C.3     1  UNL1        0.0725
     16 O         145.1561  132.4014  156.1264 O.3     1  UNL1       -0.5055
     17 C         143.9882  133.3044  155.8612 C.ar    1  UNL1        0.1333
     18 C         143.0525  133.0070  154.7271 C.ar    1  UNL1        0.0363
     19 C         141.8845  133.9101  154.4618 C.ar    1  UNL1       -0.0001
     20 C         141.6522  135.1106  155.3307 C.ar    1  UNL1       -0.0101
     21 C         142.5878  135.4080  156.4648 C.ar    1  UNL1       -0.0204
     22 C         143.7558  134.5050  156.7300 C.ar    1  UNL1        0.0321
     23 C         142.3555  136.6084  157.3336 C.3     1  UNL1        0.0433
     24 C         141.1875  137.5115  157.0683 C.3     1  UNL1        0.0748
     25 N         140.2519  137.2141  155.9342 N.3     1  UNL1       -0.2934
     26 C         140.4843  136.0136  155.0654 C.3     1  UNL1        0.0953
     27 H         145.3012  131.6515  155.5837 H       1  UNL1        0.2922
     28 H         140.2648  138.0287  155.3205 H       1  UNL1        0.1236
@<TRIPOS>BOND
     1    16    17    1
     2    17    18   ar
     3    18    19   ar
     4    19    20   ar
     5    20    21   ar
     6    21    22   ar
     7    21    23    1
     8    23    24    1
     9    24     1    1
    10     1     2    1
    11     2     3    1
    12     3     4    1
    13     4     5    1
    14     5     6    1
    15     6     7    1
    16     7     8    1
    17     8     9   ar
    18     9    10   ar
    19    10    11   ar
    20    11    12   ar
    21    12    13   ar
    22     5    14    1
    23    14    15    1
    24    24    25    1
    25    25    26    1
    26    22    17   ar
    27    15     2    1
    28    26    20    1
    29    13     5    1
    30    13     8   ar
    31    16    27    1
    32    25    28    1
@<TRIPOS>MOLECULE
*****
 28 32 0 0 0
SMALL
GASTEIGER

@<TRIPOS>ATOM
      1 C         138.0116  139.6707  162.8833 C.3     1  UNL1        0.0883
      2 N         138.9657  139.6086  164.0391 N.3     1  UNL1       -0.2715
      3 C         138.4959  139.9613  165.4192 C.3     1  UNL1        0.0725
      4 C         139.4501  139.8991  166.5749 C.3     1  UNL1        0.0214
      5 C         140.8740  139.4843  166.3505 C.3     1  UNL1        0.0216
      6 C         142.3194  139.0893  166.2803 C.3     1  UNL1        0.0088
      7 C         142.8890  139.1671  167.6658 C.3     1  UNL1        0.0264
      8 C         141.7956  139.6103  168.5923 C.ar    1  UNL1       -0.0261
      9 C         141.7731  139.8606  170.0711 C.ar    1  UNL1       -0.0046
     10 C         140.5054  140.3069  170.7369 C.ar    1  UNL1       -0.0003
     11 C         139.2600  140.5030  169.9241 C.ar    1  UNL1       -0.0003
     12 C         139.2825  140.2526  168.4453 C.ar    1  UNL1       -0.0046
     13 C         140.5503  139.8063  167.7794 C.ar    1  UNL1       -0.0266
     14 C         141.3438  139.1316  164.9703 C.3     1  UNL1        0.0214
     15 C         140.3896  139.1938  163.8146 C.3     1  UNL1        0.0725
     16 O         141.6303  145.7901  159.6883 O.3     1  UNL1       -0.5055
     17 C         140.7595  144.5769  159.5474 C.ar    1  UNL1        0.1333
     18 C         140.2243  144.1902  158.2005 C.ar    1  UNL1        0.0363
     19 C         139.3535  142.9769  158.0596 C.ar    1  UNL1       -0.0001
     20 C         139.0181  142.1504  159.2655 C.ar    1  UNL1       -0.0101
     21 C         139.5533  142.5371  160.6124 C.ar    1  UNL1       -0.0204
     22 C         140.4240  143.7503  160.7533 C.ar    1  UNL1        0.0321
     23 C         139.2178  141.7105  161.8183 C.3     1  UNL1        0.0433
     24 C         138.3470  140.4973  161.6774 C.3     1  UNL1        0.0748
     25 N         137.8118  140.1106  160.3305 N.3     1  UNL1       -0.2934
     26 C         138.1473  140.9372  159.1246 C.3     1  UNL1        0.0953
     27 H         141.8398  146.3064  158.9350 H       1  UNL1        0.2922
     28 H         136.7948  140.1033  160.4088 H       1  UNL1        0.1236
@<TRIPOS>BOND
     1    16    17    1
     2    17    18   ar
     3    18    19   ar
     4    19    20   ar
     5    20    21   ar
     6    21    22   ar
     7    21    23    1
     8    23    24    1
     9    24     1    1
    10     1     2    1
    11     2     3    1
    12     3     4    1
    13     4     5    1
    14     5     6    1
    15     6     7    1
    16     7     8    1
    17     8     9   ar
    18     9    10   ar
    19    10    11   ar
    20    11    12   ar
    21    12    13   ar
    22     5    14    1
    23    14    15    1
    24    24    25    1
    25    25    26    1
    26    22    17   ar
    27    15     2    1
    28    26    20    1
    29    13     5    1
    30    13     8   ar
    31    16    27    1
    32    25    28    1
@<TRIPOS>MOLECULE
*****
 28 32 0 0 0
SMALL
GASTEIGER

@<TRIPOS>ATOM
      1 C         138.4247  139.4924  165.4512 C.3     1  UNL1        0.0883
      2 N         138.7302  139.4617  163.9829 N.3     1  UNL1       -0.2715
      3 C         140.0029  138.8359  163.4946 C.3     1  UNL1        0.0725
      4 C         140.3083  138.8052  162.0264 C.3     1  UNL1        0.0214
      5 C         139.3410  139.4002  161.0465 C.3     1  UNL1        0.0216
      6 C         138.4742  139.9524  159.9538 C.3     1  UNL1        0.0088
      7 C         139.1644  139.7054  158.6451 C.3     1  UNL1        0.0264
      8 C         140.4577  139.0005  158.9289 C.ar    1  UNL1       -0.0261
      9 C         141.5501  138.5060  158.0277 C.ar    1  UNL1       -0.0046
     10 C         142.7516  137.8230  158.6105 C.ar    1  UNL1       -0.0003
     11 C         142.8608  137.6344  160.0947 C.ar    1  UNL1       -0.0003
     12 C         141.7684  138.1288  160.9959 C.ar    1  UNL1       -0.0046
     13 C         140.5669  138.8119  160.4130 C.ar    1  UNL1       -0.0266
     14 C         138.0683  140.0260  161.5348 C.3     1  UNL1        0.0214
     15 C         137.7629  140.0568  163.0030 C.3     1  UNL1        0.0725
     16 O         142.1267  140.6289  172.2153 O.3     1  UNL1       -0.5055
     17 C         141.6876  141.1359  170.8737 C.ar    1  UNL1        0.1333
     18 C         142.0432  142.5287  170.4451 C.ar    1  UNL1        0.0363
     19 C         141.6039  143.0357  169.1033 C.ar    1  UNL1       -0.0001
     20 C         140.8091  142.1499  168.1903 C.ar    1  UNL1       -0.0101
     21 C         140.4535  140.7571  168.6190 C.ar    1  UNL1       -0.0204
     22 C         140.8927  140.2501  169.9606 C.ar    1  UNL1        0.0321
     23 C         139.6588  139.8713  167.7060 C.3     1  UNL1        0.0433
     24 C         139.2195  140.3782  166.3642 C.3     1  UNL1        0.0748
     25 N         139.5751  141.7710  165.9356 N.3     1  UNL1       -0.2934
     26 C         140.3700  142.6568  166.8487 C.3     1  UNL1        0.0953
     27 H         142.6232  141.1823  172.7857 H       1  UNL1        0.2922
     28 H         138.6969  142.2544  165.7474 H       1  UNL1        0.1236
@<TRIPOS>BOND
     1    16    17    1
     2    17    18   ar
     3    18    19   ar
     4    19    20   ar
     5    20    21   ar
     6    21    22   ar
     7    21    23    1
     8    23    24    1
     9    24     1    1
    10     1     2    1
    11     2     3    1
    12     3     4    1
    13     4     5    1
    14     5     6    1
    15     6     7    1
    16     7     8    1
    17     8     9   ar
    18     9    10   ar
    19    10    11   ar
    20    11    12   ar
    21    12    13   ar
    22     5    14    1
    23    14    15    1
    24    24    25    1
    25    25    26    1
    26    22    17   ar
    27    15     2    1
    28    26    20    1
    29    13     5    1
    30    13     8   ar
    31    16    27    1
    32    25    28    1
@<TRIPOS>MOLECULE
*****
 28 32 0 0 0
SMALL
GASTEIGER

@<TRIPOS>ATOM
      1 C         142.5437  138.0185  161.8747 C.3     1  UNL1        0.0883
      2 N         141.6597  138.2642  163.0615 N.3     1  UNL1       -0.2715
      3 C         142.1833  139.0284  164.2412 C.3     1  UNL1        0.0725
      4 C         141.2993  139.2741  165.4279 C.3     1  UNL1        0.0214
      5 C         139.8918  138.7556  165.4348 C.3     1  UNL1        0.0216
      6 C         138.4702  138.3008  165.5845 C.3     1  UNL1        0.0088
      7 C         137.9740  138.7634  166.9225 C.3     1  UNL1        0.0264
      8 C         139.0890  139.5040  167.5996 C.ar    1  UNL1       -0.0261
      9 C         139.1781  140.1821  168.9346 C.ar    1  UNL1       -0.0046
     10 C         140.4524  140.8554  169.3502 C.ar    1  UNL1       -0.0003
     11 C         141.6377  140.8506  168.4308 C.ar    1  UNL1       -0.0003
     12 C         141.5485  140.1725  167.0958 C.ar    1  UNL1       -0.0046
     13 C         140.2742  139.4992  166.6803 C.ar    1  UNL1       -0.0266
     14 C         139.3683  137.9914  164.2551 C.3     1  UNL1        0.0214
     15 C         140.2522  137.7457  163.0684 C.3     1  UNL1        0.0725
     16 O         141.7645  145.4631  159.7021 O.3     1  UNL1       -0.5055
     17 C         142.2526  144.0726  159.4226 C.ar    1  UNL1        0.1333
     18 C         142.9691  143.7731  158.1392 C.ar    1  UNL1        0.0363
     19 C         143.4572  142.3825  157.8597 C.ar    1  UNL1       -0.0001
     20 C         143.2288  141.2915  158.8635 C.ar    1  UNL1       -0.0101
     21 C         142.5123  141.5911  160.1468 C.ar    1  UNL1       -0.0204
     22 C         142.0242  142.9816  160.4263 C.ar    1  UNL1        0.0321
     23 C         142.2839  140.5001  161.1505 C.3     1  UNL1        0.0433
     24 C         142.7721  139.1095  160.8710 C.3     1  UNL1        0.0748
     25 N         143.4886  138.8100  159.5877 N.3     1  UNL1       -0.2934
     26 C         143.7169  139.9010  158.5839 C.3     1  UNL1        0.0953
     27 H         141.9071  146.1446  159.0751 H       1  UNL1        0.2922
     28 H         142.9533  138.0819  159.1146 H       1  UNL1        0.1236
@<TRIPOS>BOND
     1    16    17    1
     2    17    18   ar
     3    18    19   ar
     4    19    20   ar
     5    20    21   ar
     6    21    22   ar
     7    21    23    1
     8    23    24    1
     9    24     1    1
    10     1     2    1
    11     2     3    1
    12     3     4    1
    13     4     5    1
    14     5     6    1
    15     6     7    1
    16     7     8    1
    17     8     9   ar
    18     9    10   ar
    19    10    11   ar
    20    11    12   ar
    21    12    13   ar
    22     5    14    1
    23    14    15    1
    24    24    25    1
    25    25    26    1
    26    22    17   ar
    27    15     2    1
    28    26    20    1
    29    13     5    1
    30    13     8   ar
    31    16    27    1
    32    25    28    1
