@<TRIPOS>MOLECULE
*****
 37 41 0 0 0
SMALL
GASTEIGER

@<TRIPOS>ATOM
      1 C         139.9808  139.5516  162.9289 C.ar    1  UNL1        0.0878
      2 C         138.8495  138.7402  163.4872 C.ar    1  UNL1        0.1543
      3 F         138.0010  137.9075  162.5725 F       1  UNL1       -0.2028
      4 C         138.5668  138.7614  164.9601 C.ar    1  UNL1        0.0356
      5 C         139.4154  139.5941  165.8748 C.ar    1  UNL1        0.0580
      6 C         139.1326  139.6153  167.3478 C.ar    1  UNL1        0.1996
      7 O         138.0013  138.8038  167.9060 O.2     1  UNL1       -0.2864
      8 C         139.9812  140.4479  168.2624 C.ar    1  UNL1        0.0701
      9 C         141.1125  141.2594  167.7041 C.ar    1  UNL1        0.0801
     10 N         141.3952  141.2381  166.2312 N.ar    1  UNL1       -0.3270
     11 C         140.5467  140.4055  165.3165 C.ar    1  UNL1        0.0750
     12 C         140.8294  140.3843  163.8436 C.ar    1  UNL1        0.0890
     13 CL        141.9607  141.1957  163.2852 Cl      1  UNL1       -0.0794
     14 C         141.0296  138.8286  159.2624 C.3     1  UNL1        0.0930
     15 C         140.3679  140.1669  159.1161 C.3     1  UNL1        0.0427
     16 C         139.8945  140.6006  160.4718 C.3     1  UNL1        0.0927
     17 N         140.2636  139.5304  161.4559 N.pl3   1  UNL1       -0.3033
     18 C         140.9652  138.4353  160.7085 C.3     1  UNL1        0.1104
     19 C         140.7852  137.4660  157.0639 C.2     1  UNL1        0.2493
     20 O         139.3053  137.7109  157.0766 O.2     1  UNL1       -0.2729
     21 N         141.6473  138.0249  158.1568 N.am    1  UNL1       -0.3025
     22 H         142.6186  137.8642  158.1484 H       1  UNL1        0.1495
     23 C         141.4029  136.6623  155.9582 C.3     1  UNL1        0.2356
     24 N         144.5080  132.9648  158.0954 N.pl3   1  UNL1       -0.3250
     25 C         143.4769  133.6436  157.2433 C.ar    1  UNL1        0.2529
     26 N         142.6130  132.9830  156.2104 N.ar    1  UNL1       -0.0924
     27 N         141.7309  134.0334  155.6032 N.ar    1  UNL1       -0.0433
     28 N         142.0497  135.3432  156.2610 N.ar    1  UNL1       -0.1402
     29 N         143.1288  135.1023  157.2746 N.ar    1  UNL1       -0.1139
     30 H         144.6651  131.9975  158.0012 H       1  UNL1        0.1452
     31 H         145.0275  133.4866  158.7489 H       1  UNL1        0.1452
     32 C         139.6985  140.4691  169.7354 C.2     1  UNL1        0.0774
     33 O         140.2522  139.3925  170.6210 O.co2   1  UNL1       -0.5444
     34 O         138.8619  141.5670  170.3228 O.co2   1  UNL1       -0.5444
     35 C         142.5265  142.0496  165.6729 C.3     1  UNL1        0.0857
     36 C         143.0320  143.3157  165.0473 C.3     1  UNL1        0.0245
     37 C         143.9805  142.1890  165.3316 C.3     1  UNL1        0.0245
@<TRIPOS>UNITY_ATOM_ATTR
33 1
charge -1
@<TRIPOS>BOND
     1    24    25    1
     2    25    26   ar
     3    26    27   ar
     4    27    28   ar
     5    28    23    1
     6    23    19    1
     7    19    20    2
     8    19    21   am
     9    21    14    1
    10    14    15    1
    11    15    16    1
    12    16    17    1
    13    17     1    1
    14     1     2   ar
    15     2     3    1
    16     2     4   ar
    17     4     5   ar
    18     5     6   ar
    19     6     7    2
    20     6     8   ar
    21     8    32    1
    22    32    33   ar
    23    32    34   ar
    24     8     9   ar
    25     9    10   ar
    26    10    35    1
    27    35    36    1
    28    36    37    1
    29    10    11   ar
    30    11    12   ar
    31    12    13    1
    32    17    18    1
    33    28    29   ar
    34    29    25   ar
    35    18    14    1
    36    12     1   ar
    37    11     5   ar
    38    37    35    1
    39    24    30    1
    40    24    31    1
    41    21    22    1
@<TRIPOS>MOLECULE
*****
 37 41 0 0 0
SMALL
GASTEIGER

@<TRIPOS>ATOM
      1 C         139.7386  142.7454  164.1377 C.ar    1  UNL1        0.0878
      2 C         139.0847  143.7828  165.0014 C.ar    1  UNL1        0.1543
      3 F         138.0992  144.7432  164.4043 F       1  UNL1       -0.2028
      4 C         139.4162  143.8598  166.4623 C.ar    1  UNL1        0.0356
      5 C         140.4017  142.8994  167.0594 C.ar    1  UNL1        0.0580
      6 C         140.7332  142.9765  168.5203 C.ar    1  UNL1        0.1996
      7 O         140.0793  144.0139  169.3840 O.2     1  UNL1       -0.2864
      8 C         141.7186  142.0161  169.1174 C.ar    1  UNL1        0.0701
      9 C         142.3725  140.9786  168.2536 C.ar    1  UNL1        0.0801
     10 N         142.0410  140.9016  166.7927 N.ar    1  UNL1       -0.3270
     11 C         141.0555  141.8620  166.1956 C.ar    1  UNL1        0.0750
     12 C         140.7240  141.7850  164.7348 C.ar    1  UNL1        0.0890
     13 CL        141.3779  140.7475  163.8710 Cl      1  UNL1       -0.0794
     14 C         139.3060  143.1658  160.3034 C.3     1  UNL1        0.0930
     15 C         138.4878  141.9338  160.5541 C.3     1  UNL1        0.0427
     16 C         138.5502  141.6264  162.0209 C.3     1  UNL1        0.0927
     17 N         139.4070  142.6683  162.6768 N.pl3   1  UNL1       -0.3033
     18 C         139.8741  143.6197  161.6153 C.3     1  UNL1        0.1104
     19 C         140.5396  143.2825  158.0198 C.2     1  UNL1        0.2493
     20 O         141.3478  142.0756  158.3947 O.2     1  UNL1       -0.2729
     21 N         139.5188  143.8275  158.9742 N.am    1  UNL1       -0.3025
     22 H         138.9884  144.6196  158.7282 H       1  UNL1        0.1495
     23 C         140.7524  143.9442  156.6906 C.3     1  UNL1        0.2356
     24 N         138.6520  148.7860  156.8513 N.pl3   1  UNL1       -0.3250
     25 C         139.0052  147.3984  156.4047 C.ar    1  UNL1        0.2529
     26 N         138.5301  146.7284  155.1496 N.ar    1  UNL1       -0.0924
     27 N         139.1267  145.3530  155.1039 N.ar    1  UNL1       -0.0433
     28 N         139.9706  145.1728  156.3308 N.ar    1  UNL1       -0.1402
     29 N         139.8955  146.4370  157.1347 N.ar    1  UNL1       -0.1139
     30 H         138.0565  149.3438  156.3005 H       1  UNL1        0.1452
     31 H         139.0158  149.1390  157.6953 H       1  UNL1        0.1452
     32 C         142.0502  142.0931  170.5782 C.2     1  UNL1        0.0774
     33 O         142.8580  143.2423  171.1044 O.co2   1  UNL1       -0.5444
     34 O         141.5739  141.0209  171.5130 O.co2   1  UNL1       -0.5444
     35 C         142.6949  139.8641  165.9290 C.3     1  UNL1        0.0857
     36 C         143.8396  139.4283  165.0632 C.3     1  UNL1        0.0245
     37 C         142.6827  138.5031  165.2987 C.3     1  UNL1        0.0245
@<TRIPOS>UNITY_ATOM_ATTR
33 1
charge -1
@<TRIPOS>BOND
     1    24    25    1
     2    25    26   ar
     3    26    27   ar
     4    27    28   ar
     5    28    23    1
     6    23    19    1
     7    19    20    2
     8    19    21   am
     9    21    14    1
    10    14    15    1
    11    15    16    1
    12    16    17    1
    13    17     1    1
    14     1     2   ar
    15     2     3    1
    16     2     4   ar
    17     4     5   ar
    18     5     6   ar
    19     6     7    2
    20     6     8   ar
    21     8    32    1
    22    32    33   ar
    23    32    34   ar
    24     8     9   ar
    25     9    10   ar
    26    10    35    1
    27    35    36    1
    28    36    37    1
    29    10    11   ar
    30    11    12   ar
    31    12    13    1
    32    17    18    1
    33    28    29   ar
    34    29    25   ar
    35    18    14    1
    36    12     1   ar
    37    11     5   ar
    38    37    35    1
    39    24    30    1
    40    24    31    1
    41    21    22    1
@<TRIPOS>MOLECULE
*****
 37 41 0 0 0
SMALL
GASTEIGER

@<TRIPOS>ATOM
      1 C         142.8292  139.5917  163.7426 C.ar    1  UNL1        0.0878
      2 C         143.8863  139.1240  164.6985 C.ar    1  UNL1        0.1543
      3 F         145.1963  138.6127  164.1764 F       1  UNL1       -0.2028
      4 C         143.6336  139.1677  166.1763 C.ar    1  UNL1        0.0356
      5 C         142.3236  139.6791  166.6984 C.ar    1  UNL1        0.0580
      6 C         142.0709  139.7227  168.1763 C.ar    1  UNL1        0.1996
      7 O         143.1280  139.2550  169.1322 O.2     1  UNL1       -0.2864
      8 C         140.7609  140.2341  168.6984 C.ar    1  UNL1        0.0701
      9 C         139.7037  140.7018  167.7425 C.ar    1  UNL1        0.0801
     10 N         139.9565  140.6581  166.2646 N.ar    1  UNL1       -0.3270
     11 C         141.2664  140.1468  165.7426 C.ar    1  UNL1        0.0750
     12 C         141.5192  140.1031  164.2647 C.ar    1  UNL1        0.0890
     13 CL        140.4620  140.5708  163.3088 Cl      1  UNL1       -0.0794
     14 C         143.1583  138.7999  159.9571 C.3     1  UNL1        0.0930
     15 C         143.7834  140.1619  160.0238 C.3     1  UNL1        0.0427
     16 C         143.7362  140.6242  161.4499 C.3     1  UNL1        0.0927
     17 N         143.0819  139.5481  162.2647 N.pl3   1  UNL1       -0.3033
     18 C         142.7248  138.4206  161.3421 C.3     1  UNL1        0.1104
     19 C         141.7952  138.1521  157.8423 C.2     1  UNL1        0.2493
     20 O         140.7580  139.1760  158.1972 O.2     1  UNL1       -0.2729
     21 N         142.9954  137.9641  158.7223 N.am    1  UNL1       -0.3025
     22 H         143.6761  137.2921  158.4893 H       1  UNL1        0.1495
     23 C         141.6323  137.3162  156.6075 C.3     1  UNL1        0.2356
     24 N         144.6860  133.1059  157.5177 N.pl3   1  UNL1       -0.3250
     25 C         143.6027  133.9929  156.9795 C.ar    1  UNL1        0.2529
     26 N         142.5398  133.5916  156.0003 N.ar    1  UNL1       -0.0924
     27 N         141.6723  134.7876  155.7417 N.ar    1  UNL1       -0.0433
     28 N         142.1991  135.9282  156.5612 N.ar    1  UNL1       -0.1402
     29 N         143.3922  135.4370  157.3262 N.ar    1  UNL1       -0.1139
     30 H         144.7421  132.1665  157.2285 H       1  UNL1        0.1452
     31 H         145.3410  133.4632  158.1601 H       1  UNL1        0.1452
     32 C         140.5081  140.2777  170.1763 C.2     1  UNL1        0.0774
     33 O         141.3699  141.1302  171.0597 O.co2   1  UNL1       -0.5444
     34 O         139.3935  139.4688  170.7708 O.co2   1  UNL1       -0.5444
     35 C         138.8993  141.1258  165.3088 C.3     1  UNL1        0.0857
     36 C         137.8305  140.8188  164.3022 C.3     1  UNL1        0.0245
     37 C         138.1370  142.2429  164.6600 C.3     1  UNL1        0.0245
@<TRIPOS>UNITY_ATOM_ATTR
33 1
charge -1
@<TRIPOS>BOND
     1    24    25    1
     2    25    26   ar
     3    26    27   ar
     4    27    28   ar
     5    28    23    1
     6    23    19    1
     7    19    20    2
     8    19    21   am
     9    21    14    1
    10    14    15    1
    11    15    16    1
    12    16    17    1
    13    17     1    1
    14     1     2   ar
    15     2     3    1
    16     2     4   ar
    17     4     5   ar
    18     5     6   ar
    19     6     7    2
    20     6     8   ar
    21     8    32    1
    22    32    33   ar
    23    32    34   ar
    24     8     9   ar
    25     9    10   ar
    26    10    35    1
    27    35    36    1
    28    36    37    1
    29    10    11   ar
    30    11    12   ar
    31    12    13    1
    32    17    18    1
    33    28    29   ar
    34    29    25   ar
    35    18    14    1
    36    12     1   ar
    37    11     5   ar
    38    37    35    1
    39    24    30    1
    40    24    31    1
    41    21    22    1
@<TRIPOS>MOLECULE
*****
 37 41 0 0 0
SMALL
GASTEIGER

@<TRIPOS>ATOM
      1 C         141.0090  139.5533  164.3651 C.ar    1  UNL1        0.0878
      2 C         141.7003  138.6766  165.3667 C.ar    1  UNL1        0.1543
      3 F         142.2007  137.3225  164.9592 F       1  UNL1       -0.2028
      4 C         141.8912  139.1539  166.7758 C.ar    1  UNL1        0.0356
      5 C         141.3908  140.5080  167.1833 C.ar    1  UNL1        0.0580
      6 C         141.5818  140.9853  168.5925 C.ar    1  UNL1        0.1996
      7 O         142.2731  140.1085  169.5941 O.2     1  UNL1       -0.2864
      8 C         141.0814  142.3393  169.0000 C.ar    1  UNL1        0.0701
      9 C         140.3900  143.2161  167.9983 C.ar    1  UNL1        0.0801
     10 N         140.1991  142.7388  166.5892 N.ar    1  UNL1       -0.3270
     11 C         140.6995  141.3847  166.1817 C.ar    1  UNL1        0.0750
     12 C         140.5086  140.9074  164.7726 C.ar    1  UNL1        0.0890
     13 CL        139.8172  141.7842  163.7709 Cl      1  UNL1       -0.0794
     14 C         141.2578  138.4298  160.6581 C.3     1  UNL1        0.0930
     15 C         139.7907  138.2533  160.9166 C.3     1  UNL1        0.0427
     16 C         139.5190  138.6527  162.3367 C.3     1  UNL1        0.0927
     17 N         140.8180  139.0760  162.9559 N.pl3   1  UNL1       -0.3033
     18 C         141.8926  138.9382  161.9184 C.3     1  UNL1        0.1104
     19 C         142.3577  139.2789  158.4629 C.2     1  UNL1        0.2493
     20 O         142.0421  140.6929  158.8516 O.2     1  UNL1       -0.2729
     21 N         141.9656  138.1474  159.3661 N.am    1  UNL1       -0.3025
     22 H         142.1727  137.2193  159.1110 H       1  UNL1        0.1495
     23 C         143.0655  138.9965  157.1709 C.3     1  UNL1        0.2356
     24 N         141.5490  134.1271  155.8036 N.pl3   1  UNL1       -0.3250
     25 C         142.3725  135.3686  155.9776 C.ar    1  UNL1        0.2529
     26 N         143.7790  135.5683  155.4963 N.ar    1  UNL1       -0.0924
     27 N         144.2098  136.9516  155.8847 N.ar    1  UNL1       -0.0433
     28 N         143.0696  137.6068  156.6061 N.ar    1  UNL1       -0.1402
     29 N         141.9340  136.6285  156.6635 N.ar    1  UNL1       -0.1139
     30 H         141.9269  133.3472  155.3365 H       1  UNL1        0.1452
     31 H         140.6306  134.0921  156.1566 H       1  UNL1        0.1452
     32 C         141.2723  142.8167  170.4091 C.2     1  UNL1        0.0774
     33 O         142.4692  143.6484  170.7636 O.co2   1  UNL1       -0.5444
     34 O         140.2663  142.4623  171.4639 O.co2   1  UNL1       -0.5444
     35 C         139.5077  143.6156  165.5876 C.3     1  UNL1        0.0857
     36 C         138.2584  144.0333  164.8703 C.3     1  UNL1        0.0245
     37 C         139.5596  144.7164  164.5700 C.3     1  UNL1        0.0245
@<TRIPOS>UNITY_ATOM_ATTR
33 1
charge -1
@<TRIPOS>BOND
     1    24    25    1
     2    25    26   ar
     3    26    27   ar
     4    27    28   ar
     5    28    23    1
     6    23    19    1
     7    19    20    2
     8    19    21   am
     9    21    14    1
    10    14    15    1
    11    15    16    1
    12    16    17    1
    13    17     1    1
    14     1     2   ar
    15     2     3    1
    16     2     4   ar
    17     4     5   ar
    18     5     6   ar
    19     6     7    2
    20     6     8   ar
    21     8    32    1
    22    32    33   ar
    23    32    34   ar
    24     8     9   ar
    25     9    10   ar
    26    10    35    1
    27    35    36    1
    28    36    37    1
    29    10    11   ar
    30    11    12   ar
    31    12    13    1
    32    17    18    1
    33    28    29   ar
    34    29    25   ar
    35    18    14    1
    36    12     1   ar
    37    11     5   ar
    38    37    35    1
    39    24    30    1
    40    24    31    1
    41    21    22    1
@<TRIPOS>MOLECULE
*****
 37 41 0 0 0
SMALL
GASTEIGER

@<TRIPOS>ATOM
      1 C         142.1253  142.5114  163.8592 C.ar    1  UNL1        0.0878
      2 C         143.2154  143.2837  164.5411 C.ar    1  UNL1        0.1543
      3 F         144.0310  144.2747  163.7647 F       1  UNL1       -0.2028
      4 C         143.4900  143.0650  165.9994 C.ar    1  UNL1        0.0356
      5 C         142.6745  142.0740  166.7758 C.ar    1  UNL1        0.0580
      6 C         142.9491  141.8554  168.2342 C.ar    1  UNL1        0.1996
      7 O         144.0393  142.6276  168.9161 O.2     1  UNL1       -0.2864
      8 C         142.1335  140.8644  169.0106 C.ar    1  UNL1        0.0701
      9 C         141.0433  140.0921  168.3285 C.ar    1  UNL1        0.0801
     10 N         140.7687  140.3108  166.8702 N.ar    1  UNL1       -0.3270
     11 C         141.5843  141.3017  166.0939 C.ar    1  UNL1        0.0750
     12 C         141.3097  141.5205  164.6355 C.ar    1  UNL1        0.0890
     13 CL        140.2195  140.7481  163.9535 Cl      1  UNL1       -0.0794
     14 C         140.9338  143.6035  160.3302 C.3     1  UNL1        0.0930
     15 C         141.9222  142.5298  159.9831 C.3     1  UNL1        0.0427
     16 C         142.4887  141.9901  161.2627 C.3     1  UNL1        0.0927
     17 N         141.8506  142.7301  162.4008 N.pl3   1  UNL1       -0.3033
     18 C         140.8897  143.7273  161.8244 C.3     1  UNL1        0.1104
     19 C         140.8023  145.4578  158.5151 C.2     1  UNL1        0.2493
     20 O         142.2770  145.6960  158.6517 O.2     1  UNL1       -0.2729
     21 N         140.1307  144.4116  159.3544 N.am    1  UNL1       -0.3025
     22 H         139.1629  144.2552  159.2648 H       1  UNL1        0.1495
     23 C         139.9992  146.2658  157.5394 C.3     1  UNL1        0.2356
     24 N         140.4815  147.8055  152.5117 N.pl3   1  UNL1       -0.3250
     25 C         140.6268  147.0266  153.7853 C.ar    1  UNL1        0.2529
     26 N         141.4324  145.7743  153.9659 N.ar    1  UNL1       -0.0924
     27 N         141.2955  145.3369  155.3942 N.ar    1  UNL1       -0.0433
     28 N         140.4051  146.3188  156.0963 N.ar    1  UNL1       -0.1402
     29 N         139.9918  147.3631  155.1020 N.ar    1  UNL1       -0.1139
     30 H         140.9400  147.5030  151.6947 H       1  UNL1        0.1452
     31 H         139.9278  148.6193  152.4929 H       1  UNL1        0.1452
     32 C         142.4081  140.6457  170.4689 C.2     1  UNL1        0.0774
     33 O         143.4524  139.6570  170.8954 O.co2   1  UNL1       -0.5444
     34 O         141.6383  141.4156  171.5007 O.co2   1  UNL1       -0.5444
     35 C         139.6786  139.5385  166.1883 C.3     1  UNL1        0.0857
     36 C         138.2425  139.4072  165.7755 C.3     1  UNL1        0.0245
     37 C         139.2263  138.3322  165.4200 C.3     1  UNL1        0.0245
@<TRIPOS>UNITY_ATOM_ATTR
33 1
charge -1
@<TRIPOS>BOND
     1    24    25    1
     2    25    26   ar
     3    26    27   ar
     4    27    28   ar
     5    28    23    1
     6    23    19    1
     7    19    20    2
     8    19    21   am
     9    21    14    1
    10    14    15    1
    11    15    16    1
    12    16    17    1
    13    17     1    1
    14     1     2   ar
    15     2     3    1
    16     2     4   ar
    17     4     5   ar
    18     5     6   ar
    19     6     7    2
    20     6     8   ar
    21     8    32    1
    22    32    33   ar
    23    32    34   ar
    24     8     9   ar
    25     9    10   ar
    26    10    35    1
    27    35    36    1
    28    36    37    1
    29    10    11   ar
    30    11    12   ar
    31    12    13    1
    32    17    18    1
    33    28    29   ar
    34    29    25   ar
    35    18    14    1
    36    12     1   ar
    37    11     5   ar
    38    37    35    1
    39    24    30    1
    40    24    31    1
    41    21    22    1
@<TRIPOS>MOLECULE
*****
 37 41 0 0 0
SMALL
GASTEIGER

@<TRIPOS>ATOM
      1 C         142.9118  141.5287  164.3189 C.ar    1  UNL1        0.0878
      2 C         143.9146  142.2937  165.1307 C.ar    1  UNL1        0.1543
      3 F         145.1537  142.8319  164.4787 F       1  UNL1       -0.2028
      4 C         143.6785  142.5205  166.5945 C.ar    1  UNL1        0.0356
      5 C         142.4394  141.9823  167.2465 C.ar    1  UNL1        0.0580
      6 C         142.2033  142.2091  168.7104 C.ar    1  UNL1        0.1996
      7 O         143.2061  142.9740  169.5222 O.2     1  UNL1       -0.2864
      8 C         140.9643  141.6708  169.3624 C.ar    1  UNL1        0.0701
      9 C         139.9614  140.9058  168.5505 C.ar    1  UNL1        0.0801
     10 N         140.1975  140.6791  167.0868 N.ar    1  UNL1       -0.3270
     11 C         141.4366  141.2173  166.4347 C.ar    1  UNL1        0.0750
     12 C         141.6727  140.9905  164.9709 C.ar    1  UNL1        0.0890
     13 CL        140.6699  140.2255  164.1591 Cl      1  UNL1       -0.0794
     14 C         143.5163  140.2118  160.7181 C.3     1  UNL1        0.0930
     15 C         143.5063  141.6939  160.4868 C.3     1  UNL1        0.0427
     16 C         143.2787  142.3676  161.8076 C.3     1  UNL1        0.0927
     17 N         143.1479  141.3019  162.8550 N.pl3   1  UNL1       -0.3033
     18 C         143.2948  139.9696  162.1817 C.3     1  UNL1        0.1104
     19 C         142.5583  138.3014  159.2406 C.2     1  UNL1        0.2493
     20 O         141.2066  138.5003  159.8599 O.2     1  UNL1       -0.2729
     21 N         143.7131  139.1572  159.6697 N.am    1  UNL1       -0.3025
     22 H         144.6003  139.0267  159.2633 H       1  UNL1        0.1495
     23 C         142.7552  137.2468  158.1923 C.3     1  UNL1        0.2356
     24 N         142.5605  137.5703  152.9256 N.pl3   1  UNL1       -0.3250
     25 C         142.9587  137.7918  154.3547 C.ar    1  UNL1        0.2529
     26 N         144.0393  138.7139  154.8361 N.ar    1  UNL1       -0.0924
     27 N         144.0947  138.6220  156.3323 N.ar    1  UNL1       -0.0433
     28 N         143.0482  137.6431  156.7756 N.ar    1  UNL1       -0.1402
     29 N         142.3461  137.1300  155.5534 N.ar    1  UNL1       -0.1139
     30 H         143.0246  138.0541  152.2047 H       1  UNL1        0.1452
     31 H         141.8350  136.9412  152.7086 H       1  UNL1        0.1452
     32 C         140.7281  141.8976  170.8262 C.2     1  UNL1        0.0774
     33 O         139.7127  142.9065  171.2746 O.co2   1  UNL1       -0.5444
     34 O         141.5073  141.1155  171.8417 O.co2   1  UNL1       -0.5444
     35 C         139.1947  139.9141  166.2750 C.3     1  UNL1        0.0857
     36 C         138.5614  138.6116  165.8844 C.3     1  UNL1        0.0245
     37 C         138.0910  139.8915  165.2595 C.3     1  UNL1        0.0245
@<TRIPOS>UNITY_ATOM_ATTR
33 1
charge -1
@<TRIPOS>BOND
     1    24    25    1
     2    25    26   ar
     3    26    27   ar
     4    27    28   ar
     5    28    23    1
     6    23    19    1
     7    19    20    2
     8    19    21   am
     9    21    14    1
    10    14    15    1
    11    15    16    1
    12    16    17    1
    13    17     1    1
    14     1     2   ar
    15     2     3    1
    16     2     4   ar
    17     4     5   ar
    18     5     6   ar
    19     6     7    2
    20     6     8   ar
    21     8    32    1
    22    32    33   ar
    23    32    34   ar
    24     8     9   ar
    25     9    10   ar
    26    10    35    1
    27    35    36    1
    28    36    37    1
    29    10    11   ar
    30    11    12   ar
    31    12    13    1
    32    17    18    1
    33    28    29   ar
    34    29    25   ar
    35    18    14    1
    36    12     1   ar
    37    11     5   ar
    38    37    35    1
    39    24    30    1
    40    24    31    1
    41    21    22    1
@<TRIPOS>MOLECULE
*****
 37 41 0 0 0
SMALL
GASTEIGER

@<TRIPOS>ATOM
      1 C         142.8681  141.0569  164.6831 C.ar    1  UNL1        0.0878
      2 C         143.7958  141.9458  165.4570 C.ar    1  UNL1        0.1543
      3 F         145.0760  142.4178  164.8339 F       1  UNL1       -0.2028
      4 C         143.4433  142.3628  166.8541 C.ar    1  UNL1        0.0356
      5 C         142.1630  141.8908  167.4772 C.ar    1  UNL1        0.0580
      6 C         141.8105  142.3078  168.8743 C.ar    1  UNL1        0.1996
      7 O         142.7383  143.1968  169.6483 O.2     1  UNL1       -0.2864
      8 C         140.5303  141.8359  169.4974 C.ar    1  UNL1        0.0701
      9 C         139.6026  140.9469  168.7233 C.ar    1  UNL1        0.0801
     10 N         139.9551  140.5299  167.3263 N.ar    1  UNL1       -0.3270
     11 C         141.2353  141.0019  166.7032 C.ar    1  UNL1        0.0750
     12 C         141.5878  140.5849  165.3061 C.ar    1  UNL1        0.0890
     13 CL        140.6601  139.6959  164.5321 Cl      1  UNL1       -0.0794
     14 C         143.4624  140.6321  160.8709 C.3     1  UNL1        0.0930
     15 C         144.0636  139.3642  161.4011 C.3     1  UNL1        0.0427
     16 C         143.9142  139.3690  162.8936 C.3     1  UNL1        0.0927
     17 N         143.2206  140.6398  163.2859 N.pl3   1  UNL1       -0.3033
     18 C         142.9414  141.4205  162.0358 C.3     1  UNL1        0.1104
     19 C         144.2987  142.1187  158.9112 C.2     1  UNL1        0.2493
     20 O         145.2715  142.7895  159.8352 O.2     1  UNL1       -0.2729
     21 N         143.3941  141.0400  159.4291 N.am    1  UNL1       -0.3025
     22 H         142.7556  140.5998  158.8227 H       1  UNL1        0.1495
     23 C         144.2304  142.5266  157.4693 C.3     1  UNL1        0.2356
     24 N         144.8938  138.1169  154.6417 N.pl3   1  UNL1       -0.3250
     25 C         144.9696  139.5437  155.0984 C.ar    1  UNL1        0.2529
     26 N         145.6961  140.6552  154.4009 N.ar    1  UNL1       -0.0924
     27 N         145.5076  141.9079  155.2041 N.ar    1  UNL1       -0.0433
     28 N         144.6647  141.5706  156.3981 N.ar    1  UNL1       -0.1402
     29 N         144.3321  140.1094  156.3327 N.ar    1  UNL1       -0.1139
     30 H         145.3481  137.8405  153.8132 H       1  UNL1        0.1452
     31 H         144.3898  137.4570  155.1706 H       1  UNL1        0.1452
     32 C         140.1778  142.2529  170.8944 C.2     1  UNL1        0.0774
     33 O         140.7271  141.4928  172.0652 O.co2   1  UNL1       -0.5444
     34 O         139.2759  143.4300  171.1208 O.co2   1  UNL1       -0.5444
     35 C         139.0274  139.6410  166.5523 C.3     1  UNL1        0.0857
     36 C         138.0535  139.4437  165.4286 C.3     1  UNL1        0.0245
     37 C         138.3943  138.2985  166.3354 C.3     1  UNL1        0.0245
@<TRIPOS>UNITY_ATOM_ATTR
33 1
charge -1
@<TRIPOS>BOND
     1    24    25    1
     2    25    26   ar
     3    26    27   ar
     4    27    28   ar
     5    28    23    1
     6    23    19    1
     7    19    20    2
     8    19    21   am
     9    21    14    1
    10    14    15    1
    11    15    16    1
    12    16    17    1
    13    17     1    1
    14     1     2   ar
    15     2     3    1
    16     2     4   ar
    17     4     5   ar
    18     5     6   ar
    19     6     7    2
    20     6     8   ar
    21     8    32    1
    22    32    33   ar
    23    32    34   ar
    24     8     9   ar
    25     9    10   ar
    26    10    35    1
    27    35    36    1
    28    36    37    1
    29    10    11   ar
    30    11    12   ar
    31    12    13    1
    32    17    18    1
    33    28    29   ar
    34    29    25   ar
    35    18    14    1
    36    12     1   ar
    37    11     5   ar
    38    37    35    1
    39    24    30    1
    40    24    31    1
    41    21    22    1
@<TRIPOS>MOLECULE
*****
 37 41 0 0 0
SMALL
GASTEIGER

@<TRIPOS>ATOM
      1 C         142.3383  142.2695  163.8491 C.ar    1  UNL1        0.0878
      2 C         143.3997  143.0594  164.5558 C.ar    1  UNL1        0.1543
      3 F         144.2588  144.0182  163.7859 F       1  UNL1       -0.2028
      4 C         143.6020  142.8904  166.0324 C.ar    1  UNL1        0.0356
      5 C         142.7429  141.9316  166.8023 C.ar    1  UNL1        0.0580
      6 C         142.9453  141.7627  168.2790 C.ar    1  UNL1        0.1996
      7 O         144.0067  142.5526  168.9858 O.2     1  UNL1       -0.2864
      8 C         142.0862  140.8039  169.0489 C.ar    1  UNL1        0.0701
      9 C         141.0247  140.0141  168.3421 C.ar    1  UNL1        0.0801
     10 N         140.8224  140.1830  166.8654 N.ar    1  UNL1       -0.3270
     11 C         141.6815  141.1418  166.0956 C.ar    1  UNL1        0.0750
     12 C         141.4792  141.3107  164.6189 C.ar    1  UNL1        0.0890
     13 CL        140.4178  140.5209  163.9121 Cl      1  UNL1       -0.0794
     14 C         142.2878  142.1227  159.9707 C.3     1  UNL1        0.0930
     15 C         141.3615  143.2739  160.2293 C.3     1  UNL1        0.0427
     16 C         141.2677  143.4690  161.7136 C.3     1  UNL1        0.0927
     17 N         142.1359  142.4384  162.3723 N.pl3   1  UNL1       -0.3033
     18 C         142.7664  141.6064  161.2952 C.3     1  UNL1        0.1104
     19 C         144.0423  141.8337  158.0764 C.2     1  UNL1        0.2493
     20 O         145.0353  142.6247  158.8755 O.2     1  UNL1       -0.2729
     21 N         142.6685  141.5827  158.6241 N.am    1  UNL1       -0.3025
     22 H         142.0168  141.0636  158.0996 H       1  UNL1        0.1495
     23 C         144.4230  141.2937  156.7298 C.3     1  UNL1        0.2356
     24 N         142.5041  136.3779  156.5487 N.pl3   1  UNL1       -0.3250
     25 C         143.3945  137.5697  156.3569 C.ar    1  UNL1        0.2529
     26 N         144.7077  137.5816  155.6322 N.ar    1  UNL1       -0.0924
     27 N         145.2528  138.9781  155.6837 N.ar    1  UNL1       -0.0433
     28 N         144.2765  139.8292  156.4402 N.ar    1  UNL1       -0.1402
     29 N         143.1280  138.9587  156.8563 N.ar    1  UNL1       -0.1139
     30 H         142.7668  135.5030  156.1816 H       1  UNL1        0.1452
     31 H         141.6570  136.4706  157.0416 H       1  UNL1        0.1452
     32 C         142.2885  140.6350  170.5255 C.2     1  UNL1        0.0774
     33 O         141.3527  141.2991  171.4916 O.co2   1  UNL1       -0.5444
     34 O         143.4266  139.8019  171.0362 O.co2   1  UNL1       -0.5444
     35 C         139.7610  139.3932  166.1587 C.3     1  UNL1        0.0857
     36 C         138.3274  139.2133  165.7557 C.3     1  UNL1        0.0245
     37 C         139.3562  138.2050  165.3375 C.3     1  UNL1        0.0245
@<TRIPOS>UNITY_ATOM_ATTR
33 1
charge -1
@<TRIPOS>BOND
     1    24    25    1
     2    25    26   ar
     3    26    27   ar
     4    27    28   ar
     5    28    23    1
     6    23    19    1
     7    19    20    2
     8    19    21   am
     9    21    14    1
    10    14    15    1
    11    15    16    1
    12    16    17    1
    13    17     1    1
    14     1     2   ar
    15     2     3    1
    16     2     4   ar
    17     4     5   ar
    18     5     6   ar
    19     6     7    2
    20     6     8   ar
    21     8    32    1
    22    32    33   ar
    23    32    34   ar
    24     8     9   ar
    25     9    10   ar
    26    10    35    1
    27    35    36    1
    28    36    37    1
    29    10    11   ar
    30    11    12   ar
    31    12    13    1
    32    17    18    1
    33    28    29   ar
    34    29    25   ar
    35    18    14    1
    36    12     1   ar
    37    11     5   ar
    38    37    35    1
    39    24    30    1
    40    24    31    1
    41    21    22    1
@<TRIPOS>MOLECULE
*****
 37 41 0 0 0
SMALL
GASTEIGER

@<TRIPOS>ATOM
      1 C         142.9532  141.7953  164.4677 C.ar    1  UNL1        0.0878
      2 C         143.9205  142.5356  165.3430 C.ar    1  UNL1        0.1543
      3 F         145.1807  143.1007  164.7577 F       1  UNL1       -0.2028
      4 C         143.6276  142.7109  166.8036 C.ar    1  UNL1        0.0356
      5 C         142.3674  142.1458  167.3889 C.ar    1  UNL1        0.0580
      6 C         142.0745  142.3211  168.8496 C.ar    1  UNL1        0.1996
      7 O         143.0418  143.0614  169.7249 O.2     1  UNL1       -0.2864
      8 C         140.8143  141.7560  169.4349 C.ar    1  UNL1        0.0701
      9 C         139.8470  141.0157  168.5595 C.ar    1  UNL1        0.0801
     10 N         140.1399  140.8404  167.0989 N.ar    1  UNL1       -0.3270
     11 C         141.4001  141.4055  166.5136 C.ar    1  UNL1        0.0750
     12 C         141.6930  141.2302  165.0530 C.ar    1  UNL1        0.0890
     13 CL        140.7257  140.4899  164.1776 Cl      1  UNL1       -0.0794
     14 C         143.5586  142.0785  160.6442 C.3     1  UNL1        0.0930
     15 C         143.8350  140.6222  160.8744 C.3     1  UNL1        0.0427
     16 C         143.6419  140.3389  162.3346 C.3     1  UNL1        0.0927
     17 N         143.2461  141.6200  163.0070 N.pl3   1  UNL1       -0.3033
     18 C         143.1947  142.6951  161.9622 C.3     1  UNL1        0.1104
     19 C         142.3979  143.4031  158.7342 C.2     1  UNL1        0.2493
     20 O         141.0882  143.2994  159.4582 O.2     1  UNL1       -0.2729
     21 N         143.6331  142.7926  159.3272 N.am    1  UNL1       -0.3025
     22 H         144.4926  142.8607  158.8521 H       1  UNL1        0.1495
     23 C         142.4724  144.1173  157.4172 C.3     1  UNL1        0.2356
     24 N         138.8734  147.9052  156.6558 N.pl3   1  UNL1       -0.3250
     25 C         139.6270  146.6122  156.5544 C.ar    1  UNL1        0.2529
     26 N         139.2696  145.4500  155.6761 N.ar    1  UNL1       -0.0924
     27 N         140.2920  144.3739  155.8924 N.ar    1  UNL1       -0.0433
     28 N         141.2812  144.8711  156.9044 N.ar    1  UNL1       -0.1402
     29 N         140.8702  146.2545  157.3135 N.ar    1  UNL1       -0.1139
     30 H         138.0638  148.0469  156.1138 H       1  UNL1        0.1452
     31 H         139.1884  148.6121  157.2643 H       1  UNL1        0.1452
     32 C         140.5214  141.9313  170.8955 C.2     1  UNL1        0.0774
     33 O         139.5028  142.9385  171.3406 O.co2   1  UNL1       -0.5444
     34 O         141.2470  141.0993  171.9111 O.co2   1  UNL1       -0.5444
     35 C         139.1726  140.1001  166.2236 C.3     1  UNL1        0.0857
     36 C         138.5732  138.8083  165.7524 C.3     1  UNL1        0.0245
     37 C         138.0965  140.1096  165.1786 C.3     1  UNL1        0.0245
@<TRIPOS>UNITY_ATOM_ATTR
33 1
charge -1
@<TRIPOS>BOND
     1    24    25    1
     2    25    26   ar
     3    26    27   ar
     4    27    28   ar
     5    28    23    1
     6    23    19    1
     7    19    20    2
     8    19    21   am
     9    21    14    1
    10    14    15    1
    11    15    16    1
    12    16    17    1
    13    17     1    1
    14     1     2   ar
    15     2     3    1
    16     2     4   ar
    17     4     5   ar
    18     5     6   ar
    19     6     7    2
    20     6     8   ar
    21     8    32    1
    22    32    33   ar
    23    32    34   ar
    24     8     9   ar
    25     9    10   ar
    26    10    35    1
    27    35    36    1
    28    36    37    1
    29    10    11   ar
    30    11    12   ar
    31    12    13    1
    32    17    18    1
    33    28    29   ar
    34    29    25   ar
    35    18    14    1
    36    12     1   ar
    37    11     5   ar
    38    37    35    1
    39    24    30    1
    40    24    31    1
    41    21    22    1
