@<TRIPOS>MOLECULE
*****
 32 35 0 0 0
SMALL
GASTEIGER

@<TRIPOS>ATOM
      1 N         142.3575  139.3506  164.2793 N.3     1  UNL1       -0.2690
      2 C         142.4228  140.6525  163.5370 C.3     1  UNL1        0.0724
      3 C         141.7643  140.7849  162.1958 C.3     1  UNL1        0.0188
      4 C         141.0405  139.6156  161.5969 C.3     1  UNL1        0.0188
      5 C         140.9753  138.3137  162.3391 C.3     1  UNL1        0.0188
      6 C         141.6338  138.1813  163.6804 C.3     1  UNL1        0.0724
      7 C         143.0160  139.2182  165.6205 C.3     1  UNL1        0.0991
      8 C         140.6465  139.9599  169.3736 C.ar    1  UNL1        0.0140
      9 C         142.0451  139.4252  169.4630 C.ar    1  UNL1        0.0009
     10 C         142.8350  139.1780  168.2119 C.ar    1  UNL1       -0.0029
     11 C         142.2262  139.4655  166.8715 C.ar    1  UNL1       -0.0061
     12 C         140.8276  140.0002  166.7821 C.ar    1  UNL1       -0.0029
     13 C         140.0378  140.2474  168.0332 C.ar    1  UNL1        0.0009
     14 O         138.4358  139.7363  170.7198 O.co2   1  UNL1       -0.5446
     15 C         139.8567  140.2072  170.6246 C.2     1  UNL1        0.0729
     16 O         140.4879  140.9252  171.7804 O.co2   1  UNL1       -0.5446
     17 C         140.3820  139.7480  160.2556 C.3     1  UNL1        0.0721
     18 N         140.8172  138.8741  159.1169 N.3     1  UNL1       -0.2724
     19 C         139.8021  138.3428  158.1488 C.3     1  UNL1        0.0758
     20 C         140.2373  137.4689  157.0100 C.3     1  UNL1        0.0609
     21 C         141.6877  137.1263  156.8393 C.3     1  UNL1        0.1687
     22 C         142.7028  137.6577  157.8074 C.3     1  UNL1        0.0609
     23 C         142.2676  138.5316  158.9462 C.3     1  UNL1        0.0758
     24 O         142.1229  136.2524  155.7005 O.3     1  UNL1       -0.4790
     25 C         142.3758  134.7918  155.9301 C.ar    1  UNL1        0.1393
     26 C         141.4561  133.7685  155.3328 C.ar    1  UNL1        0.0378
     27 C         141.7090  132.3079  155.5624 C.ar    1  UNL1        0.0154
     28 C         142.8816  131.8706  156.3893 C.ar    1  UNL1        0.0684
     29 CL        143.1345  130.4101  156.6189 Cl      1  UNL1       -0.0814
     30 C         143.8013  132.8940  156.9866 C.ar    1  UNL1        0.0712
     31 CL        144.9740  132.4568  157.8135 Cl      1  UNL1       -0.0813
     32 C         143.5484  134.3546  156.7570 C.ar    1  UNL1        0.0491
@<TRIPOS>UNITY_ATOM_ATTR
14 1
charge -1
@<TRIPOS>BOND
     1    14    15   ar
     2    15    16   ar
     3    15     8    1
     4     8     9   ar
     5     9    10   ar
     6    10    11   ar
     7    11     7    1
     8     7     1    1
     9     1     2    1
    10     2     3    1
    11     3     4    1
    12     4    17    1
    13    17    18    1
    14    18    19    1
    15    19    20    1
    16    20    21    1
    17    21    24    1
    18    24    25    1
    19    25    26   ar
    20    26    27   ar
    21    27    28   ar
    22    28    29    1
    23    28    30   ar
    24    30    31    1
    25    30    32   ar
    26    21    22    1
    27    22    23    1
    28     4     5    1
    29     5     6    1
    30    11    12   ar
    31    12    13   ar
    32    13     8   ar
    33     6     1    1
    34    23    18    1
    35    32    25   ar
@<TRIPOS>MOLECULE
*****
 32 35 0 0 0
SMALL
GASTEIGER

@<TRIPOS>ATOM
      1 N         141.7456  139.3312  164.7920 N.3     1  UNL1       -0.2690
      2 C         140.8293  138.2778  164.2435 C.3     1  UNL1        0.0724
      3 C         140.2569  138.4256  162.8650 C.3     1  UNL1        0.0188
      4 C         140.6006  139.6268  162.0349 C.3     1  UNL1        0.0188
      5 C         141.5168  140.6802  162.5834 C.3     1  UNL1        0.0188
      6 C         142.0894  140.5324  163.9620 C.3     1  UNL1        0.0724
      7 C         142.3181  139.1834  166.1706 C.3     1  UNL1        0.0991
      8 C         140.8641  141.8306  169.5065 C.ar    1  UNL1        0.0140
      9 C         142.3218  141.8001  169.1543 C.ar    1  UNL1        0.0009
     10 C         142.8064  140.9177  168.0423 C.ar    1  UNL1       -0.0029
     11 C         141.8334  140.0658  167.2826 C.ar    1  UNL1       -0.0061
     12 C         140.3757  140.0962  167.6348 C.ar    1  UNL1       -0.0029
     13 C         139.8910  140.9786  168.7467 C.ar    1  UNL1        0.0009
     14 O         139.8873  144.0975  170.3171 O.co2   1  UNL1       -0.5446
     15 C         140.3794  142.7129  170.6185 C.2     1  UNL1        0.0729
     16 O         140.3868  142.2108  172.0319 O.co2   1  UNL1       -0.5446
     17 C         140.0281  139.7746  160.6563 C.3     1  UNL1        0.0721
     18 N         140.5971  138.9796  159.5187 N.3     1  UNL1       -0.2724
     19 C         142.0474  138.5968  159.5227 C.3     1  UNL1        0.0758
     20 C         142.6164  137.8018  158.3851 C.3     1  UNL1        0.0609
     21 C         141.7350  137.3894  157.2435 C.3     1  UNL1        0.1687
     22 C         140.2846  137.7721  157.2396 C.3     1  UNL1        0.0609
     23 C         139.7157  138.5672  158.3772 C.3     1  UNL1        0.0758
     24 O         142.3039  136.5944  156.1059 O.3     1  UNL1       -0.4790
     25 C         142.4463  135.1062  156.2283 C.ar    1  UNL1        0.1393
     26 C         143.4896  134.5246  157.1356 C.ar    1  UNL1        0.0378
     27 C         143.6320  133.0364  157.2580 C.ar    1  UNL1        0.0154
     28 C         142.7311  132.1297  156.4730 C.ar    1  UNL1        0.0684
     29 CL        142.8735  130.6415  156.5954 Cl      1  UNL1       -0.0814
     30 C         141.6877  132.7113  155.5657 C.ar    1  UNL1        0.0712
     31 CL        140.7867  131.8046  154.7807 Cl      1  UNL1       -0.0813
     32 C         141.5454  134.1995  155.4434 C.ar    1  UNL1        0.0491
@<TRIPOS>UNITY_ATOM_ATTR
14 1
charge -1
@<TRIPOS>BOND
     1    14    15   ar
     2    15    16   ar
     3    15     8    1
     4     8     9   ar
     5     9    10   ar
     6    10    11   ar
     7    11     7    1
     8     7     1    1
     9     1     2    1
    10     2     3    1
    11     3     4    1
    12     4    17    1
    13    17    18    1
    14    18    19    1
    15    19    20    1
    16    20    21    1
    17    21    24    1
    18    24    25    1
    19    25    26   ar
    20    26    27   ar
    21    27    28   ar
    22    28    29    1
    23    28    30   ar
    24    30    31    1
    25    30    32   ar
    26    21    22    1
    27    22    23    1
    28     4     5    1
    29     5     6    1
    30    11    12   ar
    31    12    13   ar
    32    13     8   ar
    33     6     1    1
    34    23    18    1
    35    32    25   ar
@<TRIPOS>MOLECULE
*****
 32 35 0 0 0
SMALL
GASTEIGER

@<TRIPOS>ATOM
      1 N         138.5181  139.1133  165.1146 N.3     1  UNL1       -0.2690
      2 C         138.9704  138.0123  164.2017 C.3     1  UNL1        0.0724
      3 C         139.0159  138.2380  162.7195 C.3     1  UNL1        0.0188
      4 C         138.6090  139.5648  162.1501 C.3     1  UNL1        0.0188
      5 C         138.1567  140.6658  163.0629 C.3     1  UNL1        0.0188
      6 C         138.1112  140.4400  164.5452 C.3     1  UNL1        0.0724
      7 C         138.4726  138.8875  166.5968 C.3     1  UNL1        0.0991
      8 C         141.0779  141.3386  169.3271 C.ar    1  UNL1        0.0140
      9 C         139.7179  140.8997  169.7827 C.ar    1  UNL1        0.0009
     10 C         138.8495  140.0826  168.8726 C.ar    1  UNL1       -0.0029
     11 C         139.3410  139.7046  167.5069 C.ar    1  UNL1       -0.0061
     12 C         140.7010  140.1435  167.0512 C.ar    1  UNL1       -0.0029
     13 C         141.5694  140.9605  167.9613 C.ar    1  UNL1        0.0009
     14 O         143.0679  142.9735  169.6688 O.co2   1  UNL1       -0.5446
     15 C         141.9463  142.1556  170.2372 C.2     1  UNL1        0.0729
     16 O         141.6931  142.1548  171.7156 O.co2   1  UNL1       -0.5446
     17 C         138.6545  139.7905  160.6678 C.3     1  UNL1        0.0721
     18 N         139.8041  139.2602  159.8634 N.3     1  UNL1       -0.2724
     19 C         141.2077  139.4133  160.3698 C.3     1  UNL1        0.0758
     20 C         142.3573  138.8830  159.5654 C.3     1  UNL1        0.0609
     21 C         142.1033  138.1996  158.2544 C.3     1  UNL1        0.1687
     22 C         140.6997  138.0466  157.7479 C.3     1  UNL1        0.0609
     23 C         139.5501  138.5769  158.5525 C.3     1  UNL1        0.0758
     24 O         143.2529  137.6694  157.4499 O.3     1  UNL1       -0.4790
     25 C         143.0560  136.4850  156.5508 C.ar    1  UNL1        0.1393
     26 C         142.8089  136.6887  155.0854 C.ar    1  UNL1        0.0378
     27 C         142.6119  135.5043  154.1863 C.ar    1  UNL1        0.0154
     28 C         142.6621  134.1162  154.7525 C.ar    1  UNL1        0.0684
     29 CL        142.4652  132.9318  153.8533 Cl      1  UNL1       -0.0814
     30 C         142.9093  133.9125  156.2179 C.ar    1  UNL1        0.0712
     31 CL        142.9595  132.5244  156.7842 Cl      1  UNL1       -0.0813
     32 C         143.1062  135.0969  157.1170 C.ar    1  UNL1        0.0491
@<TRIPOS>UNITY_ATOM_ATTR
14 1
charge -1
@<TRIPOS>BOND
     1    14    15   ar
     2    15    16   ar
     3    15     8    1
     4     8     9   ar
     5     9    10   ar
     6    10    11   ar
     7    11     7    1
     8     7     1    1
     9     1     2    1
    10     2     3    1
    11     3     4    1
    12     4    17    1
    13    17    18    1
    14    18    19    1
    15    19    20    1
    16    20    21    1
    17    21    24    1
    18    24    25    1
    19    25    26   ar
    20    26    27   ar
    21    27    28   ar
    22    28    29    1
    23    28    30   ar
    24    30    31    1
    25    30    32   ar
    26    21    22    1
    27    22    23    1
    28     4     5    1
    29     5     6    1
    30    11    12   ar
    31    12    13   ar
    32    13     8   ar
    33     6     1    1
    34    23    18    1
    35    32    25   ar
@<TRIPOS>MOLECULE
*****
 32 35 0 0 0
SMALL
GASTEIGER

@<TRIPOS>ATOM
      1 N         139.3078  137.8654  163.0180 N.3     1  UNL1       -0.2690
      2 C         140.7324  137.6044  162.6274 C.3     1  UNL1        0.0724
      3 C         141.2384  138.0569  161.2899 C.3     1  UNL1        0.0188
      4 C         140.3198  138.7705  160.3428 C.3     1  UNL1        0.0188
      5 C         138.8952  139.0315  160.7332 C.3     1  UNL1        0.0188
      6 C         138.3892  138.5789  162.0709 C.3     1  UNL1        0.0724
      7 C         138.8019  137.4128  164.3556 C.3     1  UNL1        0.0991
      8 C         139.4409  139.9864  167.9913 C.ar    1  UNL1        0.0140
      9 C         140.5210  139.8675  166.9572 C.ar    1  UNL1        0.0009
     10 C         140.3080  139.0097  165.7453 C.ar    1  UNL1       -0.0029
     11 C         139.0149  138.2707  165.5675 C.ar    1  UNL1       -0.0061
     12 C         137.9348  138.3895  166.6015 C.ar    1  UNL1       -0.0029
     13 C         138.1478  139.2473  167.8134 C.ar    1  UNL1        0.0009
     14 O         140.8769  141.7066  169.3060 O.co2   1  UNL1       -0.5446
     15 C         139.6539  140.8442  169.2032 C.2     1  UNL1        0.0729
     16 O         138.6440  140.8396  170.3122 O.co2   1  UNL1       -0.5446
     17 C         140.8258  139.2231  159.0051 C.3     1  UNL1        0.0721
     18 N         141.2029  138.2110  157.9643 N.3     1  UNL1       -0.2724
     19 C         140.1838  137.7454  156.9669 C.3     1  UNL1        0.0758
     20 C         140.5608  136.7333  155.9261 C.3     1  UNL1        0.0609
     21 C         141.9571  136.1867  155.8826 C.3     1  UNL1        0.1687
     22 C         142.9762  136.6523  156.8799 C.3     1  UNL1        0.0609
     23 C         142.5990  137.6644  157.9208 C.3     1  UNL1        0.0758
     24 O         142.3342  135.1746  154.8417 O.3     1  UNL1       -0.4790
     25 C         142.4161  133.7212  155.2038 C.ar    1  UNL1        0.1393
     26 C         143.6212  133.1948  155.9253 C.ar    1  UNL1        0.0378
     27 C         143.7031  131.7415  156.2873 C.ar    1  UNL1        0.0154
     28 C         142.5799  130.8145  155.9278 C.ar    1  UNL1        0.0684
     29 CL        142.6619  129.3612  156.2899 Cl      1  UNL1       -0.0814
     30 C         141.3749  131.3410  155.2063 C.ar    1  UNL1        0.0712
     31 CL        140.2516  130.4140  154.8468 Cl      1  UNL1       -0.0813
     32 C         141.2929  132.7943  154.8443 C.ar    1  UNL1        0.0491
@<TRIPOS>UNITY_ATOM_ATTR
14 1
charge -1
@<TRIPOS>BOND
     1    14    15   ar
     2    15    16   ar
     3    15     8    1
     4     8     9   ar
     5     9    10   ar
     6    10    11   ar
     7    11     7    1
     8     7     1    1
     9     1     2    1
    10     2     3    1
    11     3     4    1
    12     4    17    1
    13    17    18    1
    14    18    19    1
    15    19    20    1
    16    20    21    1
    17    21    24    1
    18    24    25    1
    19    25    26   ar
    20    26    27   ar
    21    27    28   ar
    22    28    29    1
    23    28    30   ar
    24    30    31    1
    25    30    32   ar
    26    21    22    1
    27    22    23    1
    28     4     5    1
    29     5     6    1
    30    11    12   ar
    31    12    13   ar
    32    13     8   ar
    33     6     1    1
    34    23    18    1
    35    32    25   ar
@<TRIPOS>MOLECULE
*****
 32 35 0 0 0
SMALL
GASTEIGER

@<TRIPOS>ATOM
      1 N         139.2641  139.9885  164.3321 N.3     1  UNL1       -0.2690
      2 C         140.5154  139.6653  163.5706 C.3     1  UNL1        0.0724
      3 C         140.7025  140.1901  162.1779 C.3     1  UNL1        0.0188
      4 C         139.6383  141.0380  161.5466 C.3     1  UNL1        0.0188
      5 C         138.3870  141.3612  162.3080 C.3     1  UNL1        0.0188
      6 C         138.1999  140.8364  163.7008 C.3     1  UNL1        0.0724
      7 C         139.0770  139.4638  165.7247 C.3     1  UNL1        0.0991
      8 C         140.1575  142.0297  169.2601 C.ar    1  UNL1        0.0140
      9 C         140.4677  142.4993  167.8697 C.ar    1  UNL1        0.0009
     10 C         140.1076  141.6440  166.6913 C.ar    1  UNL1       -0.0029
     11 C         139.4371  140.3191  166.9032 C.ar    1  UNL1       -0.0061
     12 C         139.1269  139.8494  168.2935 C.ar    1  UNL1       -0.0029
     13 C         139.4870  140.7047  169.4720 C.ar    1  UNL1        0.0009
     14 O         140.8637  144.3307  170.2381 O.co2   1  UNL1       -0.5446
     15 C         140.5176  142.8850  170.4385 C.2     1  UNL1        0.0729
     16 O         140.5317  142.2946  171.8174 O.co2   1  UNL1       -0.5446
     17 C         139.8255  141.5627  160.1539 C.3     1  UNL1        0.0721
     18 N         140.1911  140.6248  159.0419 N.3     1  UNL1       -0.2724
     19 C         139.2342  139.5481  158.6237 C.3     1  UNL1        0.0758
     20 C         139.5998  138.6102  157.5117 C.3     1  UNL1        0.0609
     21 C         140.9225  138.7490  156.8178 C.3     1  UNL1        0.1687
     22 C         141.8794  139.8257  157.2360 C.3     1  UNL1        0.0609
     23 C         141.5137  140.7637  158.3481 C.3     1  UNL1        0.0758
     24 O         141.2881  137.8111  155.7058 O.3     1  UNL1       -0.4790
     25 C         141.7986  136.4364  156.0214 C.ar    1  UNL1        0.1393
     26 C         142.8787  136.2544  157.0461 C.ar    1  UNL1        0.0378
     27 C         143.3891  134.8797  157.3618 C.ar    1  UNL1        0.0154
     28 C         142.8195  133.6870  156.6527 C.ar    1  UNL1        0.0684
     29 CL        143.3299  132.3123  156.9683 Cl      1  UNL1       -0.0814
     30 C         141.7393  133.8690  155.6279 C.ar    1  UNL1        0.0712
     31 CL        141.1696  132.6763  154.9187 Cl      1  UNL1       -0.0813
     32 C         141.2289  135.2437  155.3123 C.ar    1  UNL1        0.0491
@<TRIPOS>UNITY_ATOM_ATTR
14 1
charge -1
@<TRIPOS>BOND
     1    14    15   ar
     2    15    16   ar
     3    15     8    1
     4     8     9   ar
     5     9    10   ar
     6    10    11   ar
     7    11     7    1
     8     7     1    1
     9     1     2    1
    10     2     3    1
    11     3     4    1
    12     4    17    1
    13    17    18    1
    14    18    19    1
    15    19    20    1
    16    20    21    1
    17    21    24    1
    18    24    25    1
    19    25    26   ar
    20    26    27   ar
    21    27    28   ar
    22    28    29    1
    23    28    30   ar
    24    30    31    1
    25    30    32   ar
    26    21    22    1
    27    22    23    1
    28     4     5    1
    29     5     6    1
    30    11    12   ar
    31    12    13   ar
    32    13     8   ar
    33     6     1    1
    34    23    18    1
    35    32    25   ar
@<TRIPOS>MOLECULE
*****
 32 35 0 0 0
SMALL
GASTEIGER

@<TRIPOS>ATOM
      1 N         139.4047  138.2633  162.9359 N.3     1  UNL1       -0.2690
      2 C         138.6599  139.3474  162.2146 C.3     1  UNL1        0.0724
      3 C         139.2164  139.9237  160.9465 C.3     1  UNL1        0.0188
      4 C         140.5177  139.4161  160.3996 C.3     1  UNL1        0.0188
      5 C         141.2624  138.3321  161.1208 C.3     1  UNL1        0.0188
      6 C         140.7059  137.7556  162.3890 C.3     1  UNL1        0.0724
      7 C         138.8482  137.6869  164.2039 C.3     1  UNL1        0.0991
      8 C         139.3578  139.8939  168.0923 C.ar    1  UNL1        0.0140
      9 C         140.4656  139.8906  167.0810 C.ar    1  UNL1        0.0009
     10 C         140.2957  139.1549  165.7849 C.ar    1  UNL1       -0.0029
     11 C         139.0181  138.4225  165.5000 C.ar    1  UNL1       -0.0061
     12 C         137.9103  138.4258  166.5113 C.ar    1  UNL1       -0.0029
     13 C         138.0801  139.1615  167.8074 C.ar    1  UNL1        0.0009
     14 O         139.2189  139.9437  170.6861 O.co2   1  UNL1       -0.5446
     15 C         139.5276  140.6296  169.3884 C.2     1  UNL1        0.0729
     16 O         140.0063  142.0511  169.3868 O.co2   1  UNL1       -0.5446
     17 C         141.0742  139.9926  159.1315 C.3     1  UNL1        0.0721
     18 N         141.4886  139.0833  158.0129 N.3     1  UNL1       -0.2724
     19 C         142.8616  139.2008  157.4203 C.3     1  UNL1        0.0758
     20 C         143.2760  138.2915  156.3017 C.3     1  UNL1        0.0609
     21 C         142.3174  137.2646  155.7755 C.3     1  UNL1        0.1687
     22 C         140.9444  137.1471  156.3681 C.3     1  UNL1        0.0609
     23 C         140.5300  138.0565  157.4868 C.3     1  UNL1        0.0758
     24 O         142.7318  136.3553  154.6569 O.3     1  UNL1       -0.4790
     25 C         143.0047  134.9059  154.9305 C.ar    1  UNL1        0.1393
     26 C         142.5043  133.8566  153.9826 C.ar    1  UNL1        0.0378
     27 C         142.7772  132.4072  154.2561 C.ar    1  UNL1        0.0154
     28 C         143.5505  132.0072  155.4776 C.ar    1  UNL1        0.0684
     29 CL        143.8234  130.5578  155.7511 Cl      1  UNL1       -0.0814
     30 C         144.0509  133.0565  156.4255 C.ar    1  UNL1        0.0712
     31 CL        144.8242  132.6564  157.6470 Cl      1  UNL1       -0.0813
     32 C         143.7780  134.5058  156.1519 C.ar    1  UNL1        0.0491
@<TRIPOS>UNITY_ATOM_ATTR
14 1
charge -1
@<TRIPOS>BOND
     1    14    15   ar
     2    15    16   ar
     3    15     8    1
     4     8     9   ar
     5     9    10   ar
     6    10    11   ar
     7    11     7    1
     8     7     1    1
     9     1     2    1
    10     2     3    1
    11     3     4    1
    12     4    17    1
    13    17    18    1
    14    18    19    1
    15    19    20    1
    16    20    21    1
    17    21    24    1
    18    24    25    1
    19    25    26   ar
    20    26    27   ar
    21    27    28   ar
    22    28    29    1
    23    28    30   ar
    24    30    31    1
    25    30    32   ar
    26    21    22    1
    27    22    23    1
    28     4     5    1
    29     5     6    1
    30    11    12   ar
    31    12    13   ar
    32    13     8   ar
    33     6     1    1
    34    23    18    1
    35    32    25   ar
@<TRIPOS>MOLECULE
*****
 32 35 0 0 0
SMALL
GASTEIGER

@<TRIPOS>ATOM
      1 N         140.5939  139.4542  164.7000 N.3     1  UNL1       -0.2690
      2 C         141.9018  138.8128  165.0580 C.3     1  UNL1        0.0724
      3 C         142.9961  138.7199  164.0364 C.3     1  UNL1        0.0188
      4 C         142.7826  139.2684  162.6567 C.3     1  UNL1        0.0188
      5 C         141.4748  139.9098  162.2987 C.3     1  UNL1        0.0188
      6 C         140.3804  140.0027  163.3204 C.3     1  UNL1        0.0724
      7 C         139.4996  139.5470  165.7217 C.3     1  UNL1        0.0991
      8 C         140.0349  142.1359  169.3633 C.ar    1  UNL1        0.0140
      9 C         139.4430  140.7644  169.4986 C.ar    1  UNL1        0.0009
     10 C         139.2645  139.9014  168.2847 C.ar    1  UNL1       -0.0029
     11 C         139.6781  140.4100  166.9356 C.ar    1  UNL1       -0.0061
     12 C         140.2700  141.7815  166.8002 C.ar    1  UNL1       -0.0029
     13 C         140.4485  142.6445  168.0141 C.ar    1  UNL1        0.0009
     14 O         140.1155  144.4909  170.4576 O.co2   1  UNL1       -0.5446
     15 C         140.2134  142.9989  170.5771 C.2     1  UNL1        0.0729
     16 O         140.4897  142.3699  171.9105 O.co2   1  UNL1       -0.5446
     17 C         143.8770  139.1756  161.6350 C.3     1  UNL1        0.0721
     18 N         143.5358  139.0461  160.1801 N.3     1  UNL1       -0.2724
     19 C         142.8843  137.7946  159.6710 C.3     1  UNL1        0.0758
     20 C         142.5430  137.6652  158.2161 C.3     1  UNL1        0.0609
     21 C         142.8533  138.7873  157.2702 C.3     1  UNL1        0.1687
     22 C         143.5048  140.0389  157.7793 C.3     1  UNL1        0.0609
     23 C         143.8460  140.1683  159.2343 C.3     1  UNL1        0.0758
     24 O         142.5121  138.6579  155.8153 O.3     1  UNL1       -0.4790
     25 C         141.0895  138.4336  155.3957 C.ar    1  UNL1        0.1393
     26 C         140.7303  137.2297  154.5762 C.ar    1  UNL1        0.0378
     27 C         139.3078  137.0053  154.1566 C.ar    1  UNL1        0.0154
     28 C         138.2445  137.9848  154.5564 C.ar    1  UNL1        0.0684
     29 CL        136.8220  137.7604  154.1367 Cl      1  UNL1       -0.0814
     30 C         138.6037  139.1887  155.3758 C.ar    1  UNL1        0.0712
     31 CL        137.5404  140.1683  155.7757 Cl      1  UNL1       -0.0813
     32 C         140.0263  139.4131  155.7955 C.ar    1  UNL1        0.0491
@<TRIPOS>UNITY_ATOM_ATTR
14 1
charge -1
@<TRIPOS>BOND
     1    14    15   ar
     2    15    16   ar
     3    15     8    1
     4     8     9   ar
     5     9    10   ar
     6    10    11   ar
     7    11     7    1
     8     7     1    1
     9     1     2    1
    10     2     3    1
    11     3     4    1
    12     4    17    1
    13    17    18    1
    14    18    19    1
    15    19    20    1
    16    20    21    1
    17    21    24    1
    18    24    25    1
    19    25    26   ar
    20    26    27   ar
    21    27    28   ar
    22    28    29    1
    23    28    30   ar
    24    30    31    1
    25    30    32   ar
    26    21    22    1
    27    22    23    1
    28     4     5    1
    29     5     6    1
    30    11    12   ar
    31    12    13   ar
    32    13     8   ar
    33     6     1    1
    34    23    18    1
    35    32    25   ar
@<TRIPOS>MOLECULE
*****
 32 35 0 0 0
SMALL
GASTEIGER

@<TRIPOS>ATOM
      1 N         142.2136  137.1218  157.2228 N.3     1  UNL1       -0.2690
      2 C         142.5861  137.7867  158.5149 C.3     1  UNL1        0.0724
      3 C         141.5822  138.6340  159.2389 C.3     1  UNL1        0.0188
      4 C         140.2059  138.8164  158.6710 C.3     1  UNL1        0.0188
      5 C         139.8335  138.1516  157.3791 C.3     1  UNL1        0.0188
      6 C         140.8373  137.3042  156.6549 C.3     1  UNL1        0.0724
      7 C         143.2175  136.2744  156.4988 C.3     1  UNL1        0.0991
      8 C         142.4834  131.8652  155.9796 C.ar    1  UNL1        0.0140
      9 C         141.9052  132.8423  154.9994 C.ar    1  UNL1        0.0009
     10 C         142.1499  134.3121  155.1725 C.ar    1  UNL1       -0.0029
     11 C         142.9728  134.8047  156.3257 C.ar    1  UNL1       -0.0061
     12 C         143.5510  133.8276  157.3059 C.ar    1  UNL1       -0.0029
     13 C         143.3064  132.3578  157.1328 C.ar    1  UNL1        0.0009
     14 O         143.2488  129.4035  156.3022 O.co2   1  UNL1       -0.5446
     15 C         142.2387  130.3954  155.8065 C.2     1  UNL1        0.0729
     16 O         140.9839  129.9176  155.1379 O.co2   1  UNL1       -0.5446
     17 C         139.2021  139.6638  159.3952 C.3     1  UNL1        0.0721
     18 N         138.9927  139.4835  160.8695 N.3     1  UNL1       -0.2724
     19 C         138.8290  140.6824  161.7559 C.3     1  UNL1        0.0758
     20 C         138.6197  140.5021  163.2302 C.3     1  UNL1        0.0609
     21 C         138.5739  139.1229  163.8181 C.3     1  UNL1        0.1687
     22 C         138.7375  137.9239  162.9317 C.3     1  UNL1        0.0609
     23 C         138.9469  138.1043  161.4573 C.3     1  UNL1        0.0758
     24 O         138.3645  138.9426  165.2924 O.3     1  UNL1       -0.4790
     25 C         139.4659  139.2799  166.2532 C.ar    1  UNL1        0.1393
     26 C         140.8984  139.1408  165.8307 C.ar    1  UNL1        0.0378
     27 C         141.9999  139.4781  166.7915 C.ar    1  UNL1        0.0154
     28 C         141.6688  139.9546  168.1747 C.ar    1  UNL1        0.0684
     29 CL        142.7702  140.2919  169.1355 Cl      1  UNL1       -0.0814
     30 C         140.2363  140.0937  168.5972 C.ar    1  UNL1        0.0712
     31 CL        139.9051  140.5702  169.9805 Cl      1  UNL1       -0.0813
     32 C         139.1348  139.7564  167.6364 C.ar    1  UNL1        0.0491
@<TRIPOS>UNITY_ATOM_ATTR
14 1
charge -1
@<TRIPOS>BOND
     1    14    15   ar
     2    15    16   ar
     3    15     8    1
     4     8     9   ar
     5     9    10   ar
     6    10    11   ar
     7    11     7    1
     8     7     1    1
     9     1     2    1
    10     2     3    1
    11     3     4    1
    12     4    17    1
    13    17    18    1
    14    18    19    1
    15    19    20    1
    16    20    21    1
    17    21    24    1
    18    24    25    1
    19    25    26   ar
    20    26    27   ar
    21    27    28   ar
    22    28    29    1
    23    28    30   ar
    24    30    31    1
    25    30    32   ar
    26    21    22    1
    27    22    23    1
    28     4     5    1
    29     5     6    1
    30    11    12   ar
    31    12    13   ar
    32    13     8   ar
    33     6     1    1
    34    23    18    1
    35    32    25   ar
@<TRIPOS>MOLECULE
*****
 32 35 0 0 0
SMALL
GASTEIGER

@<TRIPOS>ATOM
      1 N         141.9733  137.0355  156.7317 N.3     1  UNL1       -0.2690
      2 C         140.5270  137.1751  156.3588 C.3     1  UNL1        0.0724
      3 C         139.6252  138.0576  157.1699 C.3     1  UNL1        0.0188
      4 C         140.1696  138.8005  158.3539 C.3     1  UNL1        0.0188
      5 C         141.6158  138.6610  158.7267 C.3     1  UNL1        0.0188
      6 C         142.5176  137.7785  157.9156 C.3     1  UNL1        0.0724
      7 C         142.8751  136.1531  155.9206 C.3     1  UNL1        0.0991
      8 C         143.0951  131.7453  156.7998 C.ar    1  UNL1        0.0140
      9 C         144.0603  132.6894  157.4530 C.ar    1  UNL1        0.0009
     10 C         143.9870  134.1587  157.1600 C.ar    1  UNL1       -0.0029
     11 C         142.9484  134.6838  156.2136 C.ar    1  UNL1       -0.0061
     12 C         141.9832  133.7396  155.5604 C.ar    1  UNL1       -0.0029
     13 C         142.0565  132.2704  155.8535 C.ar    1  UNL1        0.0009
     14 O         142.5019  129.2941  156.1755 O.co2   1  UNL1       -0.5446
     15 C         143.1684  130.2760  157.0929 C.2     1  UNL1        0.0729
     16 O         143.9082  129.7887  158.3033 O.co2   1  UNL1       -0.5446
     17 C         139.2677  139.6831  159.1650 C.3     1  UNL1        0.0721
     18 N         139.0505  139.3973  160.6214 N.3     1  UNL1       -0.2724
     19 C         139.3166  138.0246  161.1642 C.3     1  UNL1        0.0758
     20 C         139.0995  137.7388  162.6206 C.3     1  UNL1        0.0609
     21 C         138.6161  138.8259  163.5343 C.3     1  UNL1        0.1687
     22 C         138.3500  140.1987  162.9915 C.3     1  UNL1        0.0609
     23 C         138.5672  140.4844  161.5350 C.3     1  UNL1        0.0758
     24 O         138.3990  138.5402  164.9907 O.3     1  UNL1       -0.4790
     25 C         139.3657  139.0653  166.0103 C.ar    1  UNL1        0.1393
     26 C         140.8330  139.1055  165.7017 C.ar    1  UNL1        0.0378
     27 C         141.7998  139.6306  166.7213 C.ar    1  UNL1        0.0154
     28 C         141.2992  140.1155  168.0496 C.ar    1  UNL1        0.0684
     29 CL        142.2660  140.6406  169.0692 Cl      1  UNL1       -0.0814
     30 C         139.8319  140.0753  168.3582 C.ar    1  UNL1        0.0712
     31 CL        139.3313  140.5602  169.6865 Cl      1  UNL1       -0.0813
     32 C         138.8652  139.5502  167.3386 C.ar    1  UNL1        0.0491
@<TRIPOS>UNITY_ATOM_ATTR
14 1
charge -1
@<TRIPOS>BOND
     1    14    15   ar
     2    15    16   ar
     3    15     8    1
     4     8     9   ar
     5     9    10   ar
     6    10    11   ar
     7    11     7    1
     8     7     1    1
     9     1     2    1
    10     2     3    1
    11     3     4    1
    12     4    17    1
    13    17    18    1
    14    18    19    1
    15    19    20    1
    16    20    21    1
    17    21    24    1
    18    24    25    1
    19    25    26   ar
    20    26    27   ar
    21    27    28   ar
    22    28    29    1
    23    28    30   ar
    24    30    31    1
    25    30    32   ar
    26    21    22    1
    27    22    23    1
    28     4     5    1
    29     5     6    1
    30    11    12   ar
    31    12    13   ar
    32    13     8   ar
    33     6     1    1
    34    23    18    1
    35    32    25   ar
