@<TRIPOS>MOLECULE
*****
 30 34 0 0 0
SMALL
GASTEIGER

@<TRIPOS>ATOM
      1 N         143.7689  142.3676  165.4177 N.pl3   1  UNL1       -0.3133
      2 C         142.9782  142.0737  166.6581 C.2     1  UNL1        0.2770
      3 N         141.7251  141.2526  166.7310 N.2     1  UNL1       -0.2204
      4 C         141.2744  141.2208  168.1614 C.3     1  UNL1        0.1537
      5 C         142.2490  142.0222  168.9724 C.3     1  UNL1        0.2350
      6 O         143.3020  142.5493  168.0434 O.2     1  UNL1       -0.4478
      7 C         140.3877  140.4545  167.2251 C.ar    1  UNL1        0.0367
      8 C         140.7135  140.3970  165.7620 C.ar    1  UNL1        0.0153
      9 C         139.8268  139.6307  164.8257 C.ar    1  UNL1        0.0505
     10 C         138.6143  138.9219  165.3525 C.ar    1  UNL1        0.0178
     11 C         138.2885  138.9794  166.8156 C.ar    1  UNL1        0.0379
     12 C         139.1752  139.7457  167.7519 C.ar    1  UNL1        0.1364
     13 O         138.8494  139.8032  169.2150 O.3     1  UNL1       -0.4756
     14 C         139.7361  140.5695  170.1512 C.3     1  UNL1        0.2074
     15 C         140.9485  141.2783  169.6244 C.3     1  UNL1        0.0666
     16 C         142.1605  142.1300  169.8608 C.3     1  UNL1        0.0061
     17 C         141.2723  141.7540  171.0097 C.3     1  UNL1        0.0061
     18 H         143.4743  142.0085  164.5496 H       1  UNL1        0.1466
     19 H         144.5823  142.9195  165.4716 H       1  UNL1        0.1466
     20 N         140.1526  139.5732  163.3627 N.am    1  UNL1       -0.2791
     21 C         140.7555  138.3308  162.7768 C.2     1  UNL1        0.2672
     22 O         141.0325  137.1460  163.6540 O.2     1  UNL1       -0.2682
     23 H         139.9708  140.3508  162.7870 H       1  UNL1        0.1552
     24 C         141.0813  138.2733  161.3138 C.ar    1  UNL1        0.1349
     25 C         142.4594  137.8844  160.8670 C.ar    1  UNL1        0.0261
     26 C         142.7852  137.8269  159.4039 C.ar    1  UNL1        0.0329
     27 C         141.7329  138.1583  158.3877 C.ar    1  UNL1        0.1592
     28 F         142.0587  138.1008  156.9246 F       1  UNL1       -0.2025
     29 C         140.3548  138.5473  158.8344 C.ar    1  UNL1        0.1285
     30 N         140.0290  138.6048  160.2975 N.ar    1  UNL1       -0.2369
@<TRIPOS>BOND
     1     1     2    1
     2     2     3    2
     3     3     4    1
     4     4     5    1
     5     5     6    1
     6     4     7    1
     7     7     8   ar
     8     8     9   ar
     9     9    20    1
    10    20    21   am
    11    21    22    2
    12    21    24    1
    13    24    25   ar
    14    25    26   ar
    15    26    27   ar
    16    27    28    1
    17    27    29   ar
    18    29    30   ar
    19     9    10   ar
    20    10    11   ar
    21    11    12   ar
    22    12    13    1
    23    13    14    1
    24    14    15    1
    25    15    16    1
    26    16    17    1
    27     6     2    1
    28    12     7   ar
    29    17    15    1
    30    15     4    1
    31    30    24   ar
    32     1    18    1
    33     1    19    1
    34    20    23    1
@<TRIPOS>MOLECULE
*****
 30 34 0 0 0
SMALL
GASTEIGER

@<TRIPOS>ATOM
      1 N         143.9940  145.1173  162.6058 N.pl3   1  UNL1       -0.3133
      2 C         142.5451  144.8338  162.8712 C.2     1  UNL1        0.2770
      3 N         141.5804  144.2019  161.9122 N.2     1  UNL1       -0.2204
      4 C         140.2456  144.1100  162.5906 C.3     1  UNL1        0.1537
      5 C         140.3856  144.6852  163.9688 C.3     1  UNL1        0.2350
      6 O         141.8067  145.1325  164.1423 O.2     1  UNL1       -0.4478
      7 C         140.2579  143.5676  161.1921 C.ar    1  UNL1        0.0367
      8 C         141.5245  143.5927  160.3890 C.ar    1  UNL1        0.0153
      9 C         141.5368  143.0503  158.9905 C.ar    1  UNL1        0.0505
     10 C         140.2824  142.4829  158.3951 C.ar    1  UNL1        0.0178
     11 C         139.0157  142.4579  159.1983 C.ar    1  UNL1        0.0379
     12 C         139.0035  143.0002  160.5967 C.ar    1  UNL1        0.1364
     13 O         137.7368  142.9752  161.3998 O.3     1  UNL1       -0.4756
     14 C         137.7245  143.5176  162.7982 C.3     1  UNL1        0.2074
     15 C         138.9790  144.0850  163.3936 C.3     1  UNL1        0.0666
     16 C         139.6961  144.7257  164.5447 C.3     1  UNL1        0.0061
     17 C         138.2406  144.3837  164.6647 C.3     1  UNL1        0.0061
     18 H         144.3900  144.8834  161.7353 H       1  UNL1        0.1466
     19 H         144.5491  145.5372  163.3021 H       1  UNL1        0.1466
     20 N         142.8035  143.0753  158.1875 N.am    1  UNL1       -0.2791
     21 C         143.7970  141.9593  158.3190 C.2     1  UNL1        0.2672
     22 O         143.5240  140.8182  159.2535 O.2     1  UNL1       -0.2682
     23 H         142.9827  143.8242  157.5741 H       1  UNL1        0.1552
     24 C         145.0637  141.9843  157.5159 C.ar    1  UNL1        0.1349
     25 C         145.1885  141.1356  156.2854 C.ar    1  UNL1        0.0261
     26 C         146.4553  141.1606  155.4824 C.ar    1  UNL1        0.0329
     27 C         147.5971  142.0344  155.9098 C.ar    1  UNL1        0.1592
     28 F         148.8637  142.0594  155.1068 F       1  UNL1       -0.2025
     29 C         147.4723  142.8831  157.1403 C.ar    1  UNL1        0.1285
     30 N         146.2056  142.8580  157.9434 N.ar    1  UNL1       -0.2369
@<TRIPOS>BOND
     1     1     2    1
     2     2     3    2
     3     3     4    1
     4     4     5    1
     5     5     6    1
     6     4     7    1
     7     7     8   ar
     8     8     9   ar
     9     9    20    1
    10    20    21   am
    11    21    22    2
    12    21    24    1
    13    24    25   ar
    14    25    26   ar
    15    26    27   ar
    16    27    28    1
    17    27    29   ar
    18    29    30   ar
    19     9    10   ar
    20    10    11   ar
    21    11    12   ar
    22    12    13    1
    23    13    14    1
    24    14    15    1
    25    15    16    1
    26    16    17    1
    27     6     2    1
    28    12     7   ar
    29    17    15    1
    30    15     4    1
    31    30    24   ar
    32     1    18    1
    33     1    19    1
    34    20    23    1
@<TRIPOS>MOLECULE
*****
 30 34 0 0 0
SMALL
GASTEIGER

@<TRIPOS>ATOM
      1 N         139.5958  145.3293  163.9393 N.pl3   1  UNL1       -0.3133
      2 C         140.1105  145.1805  162.5382 C.2     1  UNL1        0.2770
      3 N         141.3201  144.3974  162.1219 N.2     1  UNL1       -0.2204
      4 C         141.4631  144.5217  160.6338 C.3     1  UNL1        0.1537
      5 C         140.3417  145.3815  160.1306 C.3     1  UNL1        0.2350
      6 O         139.5058  145.7887  161.3075 O.2     1  UNL1       -0.4478
      7 C         142.5245  143.6820  161.2808 C.ar    1  UNL1        0.0367
      8 C         142.5104  143.4682  162.7653 C.ar    1  UNL1        0.0153
      9 C         143.5718  142.6286  163.4123 C.ar    1  UNL1        0.0505
     10 C         144.6473  142.0028  162.5746 C.ar    1  UNL1        0.0178
     11 C         144.6614  142.2167  161.0899 C.ar    1  UNL1        0.0379
     12 C         143.6000  143.0562  160.4430 C.ar    1  UNL1        0.1364
     13 O         143.6140  143.2701  158.9584 O.3     1  UNL1       -0.4756
     14 C         142.5526  144.1097  158.3115 C.3     1  UNL1        0.2074
     15 C         141.4772  144.7355  159.1492 C.3     1  UNL1        0.0666
     16 C         140.2435  145.5815  159.2594 C.3     1  UNL1        0.0061
     17 C         140.8725  145.3437  157.9186 C.3     1  UNL1        0.0061
     18 H         140.0642  144.8894  164.6851 H       1  UNL1        0.1466
     19 H         138.7895  145.8669  164.1130 H       1  UNL1        0.1466
     20 N         143.5577  142.4148  164.8969 N.am    1  UNL1       -0.2791
     21 C         142.7936  141.2641  165.4817 C.2     1  UNL1        0.2672
     22 O         142.0436  140.3272  164.5819 O.2     1  UNL1       -0.2682
     23 H         144.0500  143.0297  165.4875 H       1  UNL1        0.1552
     24 C         142.7795  141.0503  166.9663 C.ar    1  UNL1        0.1349
     25 C         143.1184  142.1822  167.8903 C.ar    1  UNL1        0.0261
     26 C         143.1043  141.9683  169.3750 C.ar    1  UNL1        0.0329
     27 C         142.7513  140.6226  169.9355 C.ar    1  UNL1        0.1592
     28 F         142.7373  140.4088  171.4201 F       1  UNL1       -0.2025
     29 C         142.4124  139.4906  169.0115 C.ar    1  UNL1        0.1285
     30 N         142.4265  139.7044  167.5269 N.ar    1  UNL1       -0.2369
@<TRIPOS>BOND
     1     1     2    1
     2     2     3    2
     3     3     4    1
     4     4     5    1
     5     5     6    1
     6     4     7    1
     7     7     8   ar
     8     8     9   ar
     9     9    20    1
    10    20    21   am
    11    21    22    2
    12    21    24    1
    13    24    25   ar
    14    25    26   ar
    15    26    27   ar
    16    27    28    1
    17    27    29   ar
    18    29    30   ar
    19     9    10   ar
    20    10    11   ar
    21    11    12   ar
    22    12    13    1
    23    13    14    1
    24    14    15    1
    25    15    16    1
    26    16    17    1
    27     6     2    1
    28    12     7   ar
    29    17    15    1
    30    15     4    1
    31    30    24   ar
    32     1    18    1
    33     1    19    1
    34    20    23    1
@<TRIPOS>MOLECULE
*****
 30 34 0 0 0
SMALL
GASTEIGER

@<TRIPOS>ATOM
      1 N         138.0350  149.3625  157.4578 N.pl3   1  UNL1       -0.3133
      2 C         138.7679  148.9500  156.2157 C.2     1  UNL1        0.2770
      3 N         139.5069  147.6602  156.0154 N.2     1  UNL1       -0.2204
      4 C         140.0861  147.6680  154.6317 C.3     1  UNL1        0.1537
      5 C         139.7051  148.9626  153.9770 C.3     1  UNL1        0.2350
      6 O         138.8904  149.7549  154.9559 O.2     1  UNL1       -0.4478
      7 C         140.3885  146.4235  155.4128 C.ar    1  UNL1        0.0367
      8 C         139.8739  146.2738  156.8137 C.ar    1  UNL1        0.0153
      9 C         140.1763  145.0293  157.5948 C.ar    1  UNL1        0.0505
     10 C         140.9932  143.9346  156.9748 C.ar    1  UNL1        0.0178
     11 C         141.5077  144.0844  155.5737 C.ar    1  UNL1        0.0379
     12 C         141.2054  145.3288  154.7928 C.ar    1  UNL1        0.1364
     13 O         141.7199  145.4786  153.3917 O.3     1  UNL1       -0.4756
     14 C         141.4176  146.7230  152.6107 C.3     1  UNL1        0.2074
     15 C         140.6007  147.8177  153.2307 C.3     1  UNL1        0.0666
     16 C         139.9545  149.1682  153.1378 C.3     1  UNL1        0.0061
     17 C         140.7232  148.6226  151.9709 C.3     1  UNL1        0.0061
     18 H         138.0110  148.7620  158.2376 H       1  UNL1        0.1466
     19 H         137.5779  150.2337  157.4932 H       1  UNL1        0.1466
     20 N         139.6618  144.8795  158.9958 N.am    1  UNL1       -0.2791
     21 C         140.6050  144.9892  160.1569 C.2     1  UNL1        0.2672
     22 O         142.0628  145.2486  159.9171 O.2     1  UNL1       -0.2682
     23 H         138.7049  144.7093  159.1532 H       1  UNL1        0.1552
     24 C         140.0905  144.8394  161.5579 C.ar    1  UNL1        0.1349
     25 C         141.0319  144.9592  162.7195 C.ar    1  UNL1        0.0261
     26 C         140.5173  144.8094  164.1205 C.ar    1  UNL1        0.0329
     27 C         139.0613  144.5399  164.3599 C.ar    1  UNL1        0.1592
     28 F         138.5468  144.3902  165.7609 F       1  UNL1       -0.2025
     29 C         138.1198  144.4202  163.1983 C.ar    1  UNL1        0.1285
     30 N         138.6344  144.5699  161.7974 N.ar    1  UNL1       -0.2369
@<TRIPOS>BOND
     1     1     2    1
     2     2     3    2
     3     3     4    1
     4     4     5    1
     5     5     6    1
     6     4     7    1
     7     7     8   ar
     8     8     9   ar
     9     9    20    1
    10    20    21   am
    11    21    22    2
    12    21    24    1
    13    24    25   ar
    14    25    26   ar
    15    26    27   ar
    16    27    28    1
    17    27    29   ar
    18    29    30   ar
    19     9    10   ar
    20    10    11   ar
    21    11    12   ar
    22    12    13    1
    23    13    14    1
    24    14    15    1
    25    15    16    1
    26    16    17    1
    27     6     2    1
    28    12     7   ar
    29    17    15    1
    30    15     4    1
    31    30    24   ar
    32     1    18    1
    33     1    19    1
    34    20    23    1
@<TRIPOS>MOLECULE
*****
 30 34 0 0 0
SMALL
GASTEIGER

@<TRIPOS>ATOM
      1 N         145.0190  143.1884  161.9984 N.pl3   1  UNL1       -0.3133
      2 C         144.1931  142.9909  163.2350 C.2     1  UNL1        0.2770
      3 N         142.7878  143.4725  163.4427 N.2     1  UNL1       -0.2204
      4 C         142.3537  143.0563  164.8170 C.3     1  UNL1        0.1537
      5 C         143.4907  142.3175  165.4584 C.3     1  UNL1        0.2350
      6 O         144.6275  142.2771  164.4807 O.2     1  UNL1       -0.4478
      7 C         141.3092  143.8117  164.0498 C.ar    1  UNL1        0.0367
      8 C         141.6013  144.2926  162.6594 C.ar    1  UNL1        0.0153
      9 C         140.5568  145.0480  161.8922 C.ar    1  UNL1        0.0505
     10 C         139.2203  145.3224  162.5155 C.ar    1  UNL1        0.0178
     11 C         138.9283  144.8415  163.9060 C.ar    1  UNL1        0.0379
     12 C         139.9728  144.0861  164.6731 C.ar    1  UNL1        0.1364
     13 O         139.6808  143.6051  166.0637 O.3     1  UNL1       -0.4756
     14 C         140.7252  142.8498  166.8308 C.3     1  UNL1        0.2074
     15 C         142.0617  142.5753  166.2074 C.3     1  UNL1        0.0666
     16 C         143.4363  141.9808  166.2905 C.3     1  UNL1        0.0061
     17 C         142.4961  141.8616  167.4532 C.3     1  UNL1        0.0061
     18 H         144.6438  143.6731  161.2281 H       1  UNL1        0.1466
     19 H         145.9363  142.8333  161.9573 H       1  UNL1        0.1466
     20 N         140.8488  145.5289  160.5017 N.am    1  UNL1       -0.2791
     21 C         140.2297  144.8374  159.3234 C.2     1  UNL1        0.2672
     22 O         139.3185  143.6649  159.5355 O.2     1  UNL1       -0.2682
     23 H         141.4468  146.2985  160.3625 H       1  UNL1        0.1552
     24 C         140.5217  145.3183  157.9329 C.ar    1  UNL1        0.1349
     25 C         141.6319  144.6937  157.1410 C.ar    1  UNL1        0.0261
     26 C         141.9239  145.1747  155.7505 C.ar    1  UNL1        0.0329
     27 C         141.1057  146.2802  155.1520 C.ar    1  UNL1        0.1592
     28 F         141.3977  146.7611  153.7615 F       1  UNL1       -0.2025
     29 C         139.9955  146.9048  155.9439 C.ar    1  UNL1        0.1285
     30 N         139.7034  146.4239  157.3344 N.ar    1  UNL1       -0.2369
@<TRIPOS>BOND
     1     1     2    1
     2     2     3    2
     3     3     4    1
     4     4     5    1
     5     5     6    1
     6     4     7    1
     7     7     8   ar
     8     8     9   ar
     9     9    20    1
    10    20    21   am
    11    21    22    2
    12    21    24    1
    13    24    25   ar
    14    25    26   ar
    15    26    27   ar
    16    27    28    1
    17    27    29   ar
    18    29    30   ar
    19     9    10   ar
    20    10    11   ar
    21    11    12   ar
    22    12    13    1
    23    13    14    1
    24    14    15    1
    25    15    16    1
    26    16    17    1
    27     6     2    1
    28    12     7   ar
    29    17    15    1
    30    15     4    1
    31    30    24   ar
    32     1    18    1
    33     1    19    1
    34    20    23    1
@<TRIPOS>MOLECULE
*****
 30 34 0 0 0
SMALL
GASTEIGER

@<TRIPOS>ATOM
      1 N         141.0775  145.8802  162.8967 N.pl3   1  UNL1       -0.3133
      2 C         140.6143  145.1687  161.6601 C.2     1  UNL1        0.2770
      3 N         139.8383  143.8857  161.6196 N.2     1  UNL1       -0.2204
      4 C         139.5902  143.5394  160.1813 C.3     1  UNL1        0.1537
      5 C         140.2130  144.6083  159.3330 C.3     1  UNL1        0.2350
      6 O         140.8459  145.6152  160.2469 O.2     1  UNL1       -0.4478
      7 C         139.0193  142.5507  161.1542 C.ar    1  UNL1        0.0367
      8 C         139.1891  142.7659  162.6289 C.ar    1  UNL1        0.0153
      9 C         138.6181  141.7772  163.6019 C.ar    1  UNL1        0.0505
     10 C         137.8774  140.5733  163.1000 C.ar    1  UNL1        0.0178
     11 C         137.7075  140.3581  161.6253 C.ar    1  UNL1        0.0379
     12 C         138.2785  141.3468  160.6524 C.ar    1  UNL1        0.1364
     13 O         138.1087  141.1315  159.1776 O.3     1  UNL1       -0.4756
     14 C         138.6796  142.1202  158.2048 C.3     1  UNL1        0.2074
     15 C         139.4204  143.3241  158.7066 C.3     1  UNL1        0.0666
     16 C         140.1777  144.5900  158.4346 C.3     1  UNL1        0.0061
     17 C         139.6519  143.7707  157.2935 C.3     1  UNL1        0.0061
     18 H         140.8755  145.5062  163.7847 H       1  UNL1        0.1466
     19 H         141.5835  146.7213  162.8204 H       1  UNL1        0.1466
     20 N         138.7880  141.9924  165.0766 N.am    1  UNL1       -0.2791
     21 C         139.8743  141.2726  165.8194 C.2     1  UNL1        0.2672
     22 O         140.7908  140.3376  165.0875 O.2     1  UNL1       -0.2682
     23 H         138.1864  142.6061  165.5570 H       1  UNL1        0.1552
     24 C         140.0441  141.4879  167.2941 C.ar    1  UNL1        0.1349
     25 C         140.5316  142.8102  167.8078 C.ar    1  UNL1        0.0261
     26 C         140.7014  143.0254  169.2826 C.ar    1  UNL1        0.0329
     27 C         140.3838  141.9183  170.2436 C.ar    1  UNL1        0.1592
     28 F         140.5536  142.1336  171.7183 F       1  UNL1       -0.2025
     29 C         139.8963  140.5960  169.7298 C.ar    1  UNL1        0.1285
     30 N         139.7265  140.3808  168.2552 N.ar    1  UNL1       -0.2369
@<TRIPOS>BOND
     1     1     2    1
     2     2     3    2
     3     3     4    1
     4     4     5    1
     5     5     6    1
     6     4     7    1
     7     7     8   ar
     8     8     9   ar
     9     9    20    1
    10    20    21   am
    11    21    22    2
    12    21    24    1
    13    24    25   ar
    14    25    26   ar
    15    26    27   ar
    16    27    28    1
    17    27    29   ar
    18    29    30   ar
    19     9    10   ar
    20    10    11   ar
    21    11    12   ar
    22    12    13    1
    23    13    14    1
    24    14    15    1
    25    15    16    1
    26    16    17    1
    27     6     2    1
    28    12     7   ar
    29    17    15    1
    30    15     4    1
    31    30    24   ar
    32     1    18    1
    33     1    19    1
    34    20    23    1
@<TRIPOS>MOLECULE
*****
 30 34 0 0 0
SMALL
GASTEIGER

@<TRIPOS>ATOM
      1 N         143.5287  142.1057  165.0788 N.pl3   1  UNL1       -0.3133
      2 C         142.8730  141.9246  166.4157 C.2     1  UNL1        0.2770
      3 N         141.6155  141.1519  166.6834 N.2     1  UNL1       -0.2204
      4 C         141.3250  141.2342  168.1528 C.3     1  UNL1        0.1537
      5 C         142.4029  142.0577  168.7930 C.3     1  UNL1        0.2350
      6 O         143.3596  142.4843  167.7195 O.2     1  UNL1       -0.4478
      7 C         140.3215  140.4341  167.3763 C.ar    1  UNL1        0.0367
      8 C         140.4821  140.2646  165.8946 C.ar    1  UNL1        0.0153
      9 C         139.4786  139.4646  165.1180 C.ar    1  UNL1        0.0505
     10 C         138.3145  138.8340  165.8233 C.ar    1  UNL1        0.0178
     11 C         138.1539  139.0035  167.3050 C.ar    1  UNL1        0.0379
     12 C         139.1574  139.8036  168.0815 C.ar    1  UNL1        0.1364
     13 O         138.9968  139.9731  169.5633 O.3     1  UNL1       -0.4756
     14 C         140.0003  140.7731  170.3397 C.3     1  UNL1        0.2074
     15 C         141.1644  141.4037  169.6345 C.3     1  UNL1        0.0666
     16 C         142.4158  142.2296  169.6757 C.3     1  UNL1        0.0061
     17 C         141.6510  141.9634  170.9383 C.3     1  UNL1        0.0061
     18 H         143.1312  141.6971  164.2762 H       1  UNL1        0.1466
     19 H         144.3566  142.6332  165.0040 H       1  UNL1        0.1466
     20 N         139.6392  139.2951  163.6364 N.am    1  UNL1       -0.2791
     21 C         138.7177  140.0127  162.6951 C.2     1  UNL1        0.2672
     22 O         137.6357  140.8998  163.2356 O.2     1  UNL1       -0.2682
     23 H         140.3494  138.7128  163.2816 H       1  UNL1        0.1552
     24 C         138.8783  139.8432  161.2134 C.ar    1  UNL1        0.1349
     25 C         139.8339  138.8201  160.6748 C.ar    1  UNL1        0.0261
     26 C         139.9944  138.6507  159.1930 C.ar    1  UNL1        0.0329
     27 C         139.1995  139.5043  158.2500 C.ar    1  UNL1        0.1592
     28 F         139.3601  139.3348  156.7683 F       1  UNL1       -0.2025
     29 C         138.2440  140.5274  158.7886 C.ar    1  UNL1        0.1285
     30 N         138.0834  140.6969  160.2703 N.ar    1  UNL1       -0.2369
@<TRIPOS>BOND
     1     1     2    1
     2     2     3    2
     3     3     4    1
     4     4     5    1
     5     5     6    1
     6     4     7    1
     7     7     8   ar
     8     8     9   ar
     9     9    20    1
    10    20    21   am
    11    21    22    2
    12    21    24    1
    13    24    25   ar
    14    25    26   ar
    15    26    27   ar
    16    27    28    1
    17    27    29   ar
    18    29    30   ar
    19     9    10   ar
    20    10    11   ar
    21    11    12   ar
    22    12    13    1
    23    13    14    1
    24    14    15    1
    25    15    16    1
    26    16    17    1
    27     6     2    1
    28    12     7   ar
    29    17    15    1
    30    15     4    1
    31    30    24   ar
    32     1    18    1
    33     1    19    1
    34    20    23    1
@<TRIPOS>MOLECULE
*****
 30 34 0 0 0
SMALL
GASTEIGER

@<TRIPOS>ATOM
      1 N         137.9811  142.3666  162.6625 N.pl3   1  UNL1       -0.3133
      2 C         138.8204  141.9945  163.8489 C.2     1  UNL1        0.2770
      3 N         140.2196  142.4618  164.1204 N.2     1  UNL1       -0.2204
      4 C         140.6716  141.8458  165.4113 C.3     1  UNL1        0.1537
      5 C         139.5518  140.9979  165.9375 C.3     1  UNL1        0.2350
      6 O         138.4077  141.0897  164.9719 O.2     1  UNL1       -0.4478
      7 C         141.6977  142.7281  164.7639 C.ar    1  UNL1        0.0367
      8 C         141.3865  143.4129  163.4661 C.ar    1  UNL1        0.0153
      9 C         142.4125  144.2951  162.8188 C.ar    1  UNL1        0.0505
     10 C         143.7497  144.4925  163.4692 C.ar    1  UNL1        0.0178
     11 C         144.0608  143.8076  164.7670 C.ar    1  UNL1        0.0379
     12 C         143.0348  142.9255  165.4143 C.ar    1  UNL1        0.1364
     13 O         143.3459  142.2406  166.7121 O.3     1  UNL1       -0.4756
     14 C         142.3200  141.3584  167.3594 C.3     1  UNL1        0.2074
     15 C         140.9828  141.1610  166.7090 C.3     1  UNL1        0.0666
     16 C         139.6185  140.5377  166.7072 C.3     1  UNL1        0.0061
     17 C         140.5701  140.2563  167.8320 C.3     1  UNL1        0.0061
     18 H         138.3422  142.9706  161.9741 H       1  UNL1        0.1466
     19 H         137.0692  142.0067  162.5723 H       1  UNL1        0.1466
     20 N         142.1013  144.9799  161.5210 N.am    1  UNL1       -0.2791
     21 C         141.9033  144.1699  160.2742 C.2     1  UNL1        0.2672
     22 O         142.0165  142.6751  160.3251 O.2     1  UNL1       -0.2682
     23 H         142.0271  145.9610  161.4876 H       1  UNL1        0.1552
     24 C         141.5921  144.8547  158.9764 C.ar    1  UNL1        0.1349
     25 C         140.2863  145.5715  158.8009 C.ar    1  UNL1        0.0261
     26 C         139.9751  146.2564  157.5031 C.ar    1  UNL1        0.0329
     27 C         140.9698  146.2243  156.3809 C.ar    1  UNL1        0.1592
     28 F         140.6587  146.9091  155.0831 F       1  UNL1       -0.2025
     29 C         142.2757  145.5075  156.5564 C.ar    1  UNL1        0.1285
     30 N         142.5869  144.8227  157.8541 N.ar    1  UNL1       -0.2369
@<TRIPOS>BOND
     1     1     2    1
     2     2     3    2
     3     3     4    1
     4     4     5    1
     5     5     6    1
     6     4     7    1
     7     7     8   ar
     8     8     9   ar
     9     9    20    1
    10    20    21   am
    11    21    22    2
    12    21    24    1
    13    24    25   ar
    14    25    26   ar
    15    26    27   ar
    16    27    28    1
    17    27    29   ar
    18    29    30   ar
    19     9    10   ar
    20    10    11   ar
    21    11    12   ar
    22    12    13    1
    23    13    14    1
    24    14    15    1
    25    15    16    1
    26    16    17    1
    27     6     2    1
    28    12     7   ar
    29    17    15    1
    30    15     4    1
    31    30    24   ar
    32     1    18    1
    33     1    19    1
    34    20    23    1
@<TRIPOS>MOLECULE
*****
 30 34 0 0 0
SMALL
GASTEIGER

@<TRIPOS>ATOM
      1 N         144.7801  139.1460  162.6928 N.pl3   1  UNL1       -0.3133
      2 C         143.8491  138.9536  161.5324 C.2     1  UNL1        0.2770
      3 N         142.3642  138.7593  161.6163 N.2     1  UNL1       -0.2204
      4 C         141.8371  138.6074  160.2202 C.3     1  UNL1        0.1537
      5 C         142.9963  138.7078  159.2735 C.3     1  UNL1        0.2350
      6 O         144.2398  138.9218  160.0845 O.2     1  UNL1       -0.4478
      7 C         140.7815  138.5276  161.2830 C.ar    1  UNL1        0.0367
      8 C         141.1605  138.6625  162.7280 C.ar    1  UNL1        0.0153
      9 C         140.1049  138.5827  163.7909 C.ar    1  UNL1        0.0505
     10 C         138.6704  138.3680  163.4086 C.ar    1  UNL1        0.0178
     11 C         138.2915  138.2331  161.9635 C.ar    1  UNL1        0.0379
     12 C         139.3470  138.3129  160.9007 C.ar    1  UNL1        0.1364
     13 O         138.9681  138.1780  159.4556 O.3     1  UNL1       -0.4756
     14 C         140.0236  138.2578  158.3929 C.3     1  UNL1        0.2074
     15 C         141.4581  138.4725  158.7752 C.3     1  UNL1        0.0666
     16 C         142.8957  138.6425  158.3823 C.3     1  UNL1        0.0061
     17 C         141.8487  138.4407  157.3273 C.3     1  UNL1        0.0061
     18 H         144.4268  139.1521  163.6116 H       1  UNL1        0.1466
     19 H         145.7445  139.2662  162.5354 H       1  UNL1        0.1466
     20 N         140.4839  138.7176  165.2359 N.am    1  UNL1       -0.2791
     21 C         140.6380  140.0788  165.8469 C.2     1  UNL1        0.2672
     22 O         140.4132  141.3051  165.0130 O.2     1  UNL1       -0.2682
     23 H         140.6315  137.9127  165.7833 H       1  UNL1        0.1552
     24 C         141.0170  140.2137  167.2920 C.ar    1  UNL1        0.1349
     25 C         139.9647  140.1115  168.3560 C.ar    1  UNL1        0.0261
     26 C         140.3437  140.2464  169.8011 C.ar    1  UNL1        0.0329
     27 C         141.7750  140.4834  170.1821 C.ar    1  UNL1        0.1592
     28 F         142.1540  140.6183  171.6271 F       1  UNL1       -0.2025
     29 C         142.8273  140.5856  169.1180 C.ar    1  UNL1        0.1285
     30 N         142.4484  140.4507  167.6730 N.ar    1  UNL1       -0.2369
@<TRIPOS>BOND
     1     1     2    1
     2     2     3    2
     3     3     4    1
     4     4     5    1
     5     5     6    1
     6     4     7    1
     7     7     8   ar
     8     8     9   ar
     9     9    20    1
    10    20    21   am
    11    21    22    2
    12    21    24    1
    13    24    25   ar
    14    25    26   ar
    15    26    27   ar
    16    27    28    1
    17    27    29   ar
    18    29    30   ar
    19     9    10   ar
    20    10    11   ar
    21    11    12   ar
    22    12    13    1
    23    13    14    1
    24    14    15    1
    25    15    16    1
    26    16    17    1
    27     6     2    1
    28    12     7   ar
    29    17    15    1
    30    15     4    1
    31    30    24   ar
    32     1    18    1
    33     1    19    1
    34    20    23    1
