@<TRIPOS>MOLECULE
*****
 31 34 0 0 0
SMALL
GASTEIGER

@<TRIPOS>ATOM
      1 C         140.3526  138.4918  159.6574 C.ar    1  UNL1        0.1233
      2 C         141.7201  138.3674  159.0536 C.ar    1  UNL1        0.1181
      3 N         141.5609  138.2419  157.5674 N.ar    1  UNL1       -0.2208
      4 N         140.0949  138.2886  157.2527 N.ar    1  UNL1       -0.0633
      5 N         139.3482  138.4430  158.5444 N.ar    1  UNL1       -0.1287
      6 C         139.4262  138.9333  164.0388 C.ar    1  UNL1        0.0929
      7 C         140.5904  138.0960  163.5991 C.ar    1  UNL1        0.0199
      8 C         140.8992  137.9488  162.1387 C.ar    1  UNL1        0.0032
      9 C         140.0437  138.6390  161.1180 C.ar    1  UNL1        0.0233
     10 C         138.8795  139.4763  161.5577 C.ar    1  UNL1        0.0327
     11 C         138.5707  139.6235  163.0181 C.ar    1  UNL1        0.1562
     12 F         137.4064  140.4608  163.4579 F       1  UNL1       -0.2026
     13 C         139.6437  140.4609  169.0886 C.3     1  UNL1        0.0538
     14 C         139.2174  139.7827  167.8205 C.ar    1  UNL1        0.0786
     15 C         139.8665  139.9366  166.4770 C.ar    1  UNL1        0.0963
     16 N         139.1173  139.0805  165.4994 N.ar    1  UNL1       -0.2846
     17 C         138.0050  138.3976  166.2385 C.ar    1  UNL1        0.1826
     18 N         138.0669  138.8315  167.6731 N.ar    1  UNL1       -0.2280
     19 C         142.6724  138.0953  156.5709 C.3     1  UNL1        0.2139
     20 C         143.3385  136.7649  156.3806 C.2     1  UNL1        0.2511
     21 O         144.6724  136.6846  155.6991 O.2     1  UNL1       -0.2726
     22 N         142.6709  135.5147  156.8718 N.am    1  UNL1       -0.2816
     23 H         141.7954  135.5674  157.3191 H       1  UNL1        0.1549
     24 C         143.3370  134.1843  156.6816 C.ar    1  UNL1        0.0619
     25 C         144.2171  133.6252  157.7600 C.ar    1  UNL1        0.0156
     26 C         144.8833  132.2948  157.5697 C.ar    1  UNL1        0.0022
     27 C         144.6693  131.5235  156.3011 C.ar    1  UNL1        0.0123
     28 C         143.7893  132.0825  155.2227 C.ar    1  UNL1        0.0694
     29 CL        143.5753  131.3113  153.9542 Cl      1  UNL1       -0.0813
     30 C         143.1231  133.4130  155.4130 C.ar    1  UNL1        0.0816
     31 CL        142.2430  133.9721  154.3347 Cl      1  UNL1       -0.0801
@<TRIPOS>BOND
     1    13    14    1
     2    14    15   ar
     3    15    16   ar
     4    16     6    1
     5     6     7   ar
     6     7     8   ar
     7     8     9   ar
     8     9     1    1
     9     1     2   ar
    10     2     3   ar
    11     3    19    1
    12    19    20    1
    13    20    21    2
    14    20    22   am
    15    22    24    1
    16    24    25   ar
    17    25    26   ar
    18    26    27   ar
    19    27    28   ar
    20    28    29    1
    21    28    30   ar
    22    30    31    1
    23     3     4   ar
    24     4     5   ar
    25     9    10   ar
    26    10    11   ar
    27    11    12    1
    28    16    17   ar
    29    17    18   ar
    30    18    14   ar
    31    11     6   ar
    32     5     1   ar
    33    30    24   ar
    34    22    23    1
@<TRIPOS>MOLECULE
*****
 31 34 0 0 0
SMALL
GASTEIGER

@<TRIPOS>ATOM
      1 C         140.2856  138.5293  160.1417 C.ar    1  UNL1        0.1233
      2 C         141.6678  138.5465  159.5591 C.ar    1  UNL1        0.1181
      3 N         141.5467  138.3781  158.0735 N.ar    1  UNL1       -0.2208
      4 N         140.0897  138.2568  157.7380 N.ar    1  UNL1       -0.0633
      5 N         139.3104  138.3502  159.0163 N.ar    1  UNL1       -0.1287
      6 C         139.2475  138.9424  164.5008 C.ar    1  UNL1        0.0929
      7 C         138.6663  139.8945  163.4979 C.ar    1  UNL1        0.0199
      8 C         139.0124  139.7568  162.0450 C.ar    1  UNL1        0.0032
      9 C         139.9396  138.6670  161.5948 C.ar    1  UNL1        0.0233
     10 C         140.5208  137.7149  162.5977 C.ar    1  UNL1        0.0327
     11 C         140.1747  137.8526  164.0507 C.ar    1  UNL1        0.1562
     12 F         140.7559  136.9005  165.0536 F       1  UNL1       -0.2026
     13 C         139.3005  140.4806  169.5518 C.3     1  UNL1        0.0538
     14 C         138.9259  139.7872  168.2756 C.ar    1  UNL1        0.0786
     15 C         139.5990  139.9622  166.9466 C.ar    1  UNL1        0.0963
     16 N         138.9015  139.0801  165.9539 N.ar    1  UNL1       -0.2846
     17 C         137.7972  138.3600  166.6693 C.ar    1  UNL1        0.1826
     18 N         137.8122  138.7970  168.1042 N.ar    1  UNL1       -0.2280
     19 C         142.6830  138.3380  157.0952 C.3     1  UNL1        0.2139
     20 C         143.0656  137.0426  156.4427 C.2     1  UNL1        0.2511
     21 O         144.3761  136.9240  155.7224 O.2     1  UNL1       -0.2726
     22 N         142.1378  135.8660  156.5104 N.am    1  UNL1       -0.2816
     23 H         141.2777  135.9439  156.9832 H       1  UNL1        0.1549
     24 C         142.5204  134.5706  155.8579 C.ar    1  UNL1        0.0619
     25 C         142.0288  134.2527  154.4769 C.ar    1  UNL1        0.0156
     26 C         142.4114  132.9574  153.8244 C.ar    1  UNL1        0.0022
     27 C         143.2855  131.9800  154.5530 C.ar    1  UNL1        0.0123
     28 C         143.7770  132.2980  155.9340 C.ar    1  UNL1        0.0694
     29 CL        144.6511  131.3207  156.6625 Cl      1  UNL1       -0.0813
     30 C         143.3945  133.5933  156.5865 C.ar    1  UNL1        0.0816
     31 CL        143.8860  133.9114  157.9675 Cl      1  UNL1       -0.0801
@<TRIPOS>BOND
     1    13    14    1
     2    14    15   ar
     3    15    16   ar
     4    16     6    1
     5     6     7   ar
     6     7     8   ar
     7     8     9   ar
     8     9     1    1
     9     1     2   ar
    10     2     3   ar
    11     3    19    1
    12    19    20    1
    13    20    21    2
    14    20    22   am
    15    22    24    1
    16    24    25   ar
    17    25    26   ar
    18    26    27   ar
    19    27    28   ar
    20    28    29    1
    21    28    30   ar
    22    30    31    1
    23     3     4   ar
    24     4     5   ar
    25     9    10   ar
    26    10    11   ar
    27    11    12    1
    28    16    17   ar
    29    17    18   ar
    30    18    14   ar
    31    11     6   ar
    32     5     1   ar
    33    30    24   ar
    34    22    23    1
@<TRIPOS>MOLECULE
*****
 31 34 0 0 0
SMALL
GASTEIGER

@<TRIPOS>ATOM
      1 C         143.2594  139.2691  160.1641 C.ar    1  UNL1        0.1233
      2 C         142.5360  138.2091  159.3876 C.ar    1  UNL1        0.1181
      3 N         142.9431  138.3293  157.9489 N.ar    1  UNL1       -0.2208
      4 N         143.9181  139.4637  157.8363 N.ar    1  UNL1       -0.0633
      5 N         144.1136  140.0445  159.2054 N.ar    1  UNL1       -0.1287
      6 C         142.9255  139.9955  164.5925 C.ar    1  UNL1        0.0929
      7 C         141.7955  140.3765  163.6828 C.ar    1  UNL1        0.0199
      8 C         141.9068  140.1343  162.2067 C.ar    1  UNL1        0.0032
      9 C         143.1482  139.5113  161.6403 C.ar    1  UNL1        0.0233
     10 C         144.2782  139.1303  162.5501 C.ar    1  UNL1        0.0327
     11 C         144.1669  139.3724  164.0262 C.ar    1  UNL1        0.1562
     12 F         145.2970  138.9914  164.9361 F       1  UNL1       -0.2026
     13 C         142.5087  139.1959  169.7952 C.3     1  UNL1        0.0538
     14 C         142.6227  139.8700  168.4601 C.ar    1  UNL1        0.0786
     15 C         142.7159  139.1824  167.1303 C.ar    1  UNL1        0.0963
     16 N         142.8143  140.2376  166.0687 N.ar    1  UNL1       -0.2846
     17 C         142.7819  141.5774  166.7425 C.ar    1  UNL1        0.1826
     18 N         142.6634  141.3502  168.2204 N.ar    1  UNL1       -0.2280
     19 C         142.4600  137.4667  156.8208 C.3     1  UNL1        0.2139
     20 C         143.1928  136.2043  156.4750 C.2     1  UNL1        0.2511
     21 O         144.3876  136.2548  155.5694 O.2     1  UNL1       -0.2726
     22 N         142.7309  134.8916  157.0349 N.am    1  UNL1       -0.2816
     23 H         141.9468  134.8586  157.6293 H       1  UNL1        0.1549
     24 C         143.4637  133.6293  156.6891 C.ar    1  UNL1        0.0619
     25 C         144.4772  133.0659  157.6406 C.ar    1  UNL1        0.0156
     26 C         145.2100  131.8035  157.2948 C.ar    1  UNL1        0.0022
     27 C         144.9292  131.1047  155.9975 C.ar    1  UNL1        0.0123
     28 C         143.9158  131.6682  155.0460 C.ar    1  UNL1        0.0694
     29 CL        143.6351  130.9693  153.7488 Cl      1  UNL1       -0.0813
     30 C         143.1830  132.9305  155.3918 C.ar    1  UNL1        0.0816
     31 CL        142.1695  133.4940  154.4404 Cl      1  UNL1       -0.0801
@<TRIPOS>BOND
     1    13    14    1
     2    14    15   ar
     3    15    16   ar
     4    16     6    1
     5     6     7   ar
     6     7     8   ar
     7     8     9   ar
     8     9     1    1
     9     1     2   ar
    10     2     3   ar
    11     3    19    1
    12    19    20    1
    13    20    21    2
    14    20    22   am
    15    22    24    1
    16    24    25   ar
    17    25    26   ar
    18    26    27   ar
    19    27    28   ar
    20    28    29    1
    21    28    30   ar
    22    30    31    1
    23     3     4   ar
    24     4     5   ar
    25     9    10   ar
    26    10    11   ar
    27    11    12    1
    28    16    17   ar
    29    17    18   ar
    30    18    14   ar
    31    11     6   ar
    32     5     1   ar
    33    30    24   ar
    34    22    23    1
@<TRIPOS>MOLECULE
*****
 31 34 0 0 0
SMALL
GASTEIGER

@<TRIPOS>ATOM
      1 C         143.3401  138.9063  159.5489 C.ar    1  UNL1        0.1233
      2 C         142.6265  137.9506  158.6392 C.ar    1  UNL1        0.1181
      3 N         142.9881  138.2986  157.2257 N.ar    1  UNL1       -0.2208
      4 N         143.9252  139.4694  157.2618 N.ar    1  UNL1       -0.0633
      5 N         144.1427  139.8449  158.6976 N.ar    1  UNL1       -0.1287
      6 C         143.1128  138.9496  164.0430 C.ar    1  UNL1        0.0929
      7 C         142.1548  138.1093  163.2516 C.ar    1  UNL1        0.0199
      8 C         142.2306  138.0949  161.7537 C.ar    1  UNL1        0.0032
      9 C         143.2644  138.9207  161.0470 C.ar    1  UNL1        0.0233
     10 C         144.2224  139.7609  161.8383 C.ar    1  UNL1        0.0327
     11 C         144.1466  139.7753  163.3363 C.ar    1  UNL1        0.1562
     12 F         145.1046  140.6156  164.1277 F       1  UNL1       -0.2026
     13 C         141.7424  140.1857  168.9902 C.3     1  UNL1        0.0538
     14 C         142.4071  139.5323  167.8150 C.ar    1  UNL1        0.0786
     15 C         142.1620  139.8559  166.3710 C.ar    1  UNL1        0.0963
     16 N         143.0371  138.9640  165.5410 N.ar    1  UNL1       -0.2846
     17 C         143.8231  138.0892  166.4721 C.ar    1  UNL1        0.1826
     18 N         143.4338  138.4403  167.8775 N.ar    1  UNL1       -0.2280
     19 C         142.4986  137.5987  155.9926 C.3     1  UNL1        0.2139
     20 C         142.7756  136.1372  155.7998 C.2     1  UNL1        0.2511
     21 O         144.0364  135.6965  155.1168 O.2     1  UNL1       -0.2726
     22 N         141.7920  135.1163  156.2899 N.am    1  UNL1       -0.2816
     23 H         140.9645  135.4056  156.7381 H       1  UNL1        0.1549
     24 C         142.0690  133.6548  156.0971 C.ar    1  UNL1        0.0619
     25 C         141.3294  132.8838  155.0441 C.ar    1  UNL1        0.0156
     26 C         141.6064  131.4223  154.8513 C.ar    1  UNL1        0.0022
     27 C         142.6230  130.7318  155.7115 C.ar    1  UNL1        0.0123
     28 C         143.3626  131.5027  156.7643 C.ar    1  UNL1        0.0694
     29 CL        144.3791  130.8122  157.6244 Cl      1  UNL1       -0.0813
     30 C         143.0855  132.9643  156.9571 C.ar    1  UNL1        0.0816
     31 CL        143.8251  133.7353  158.0100 Cl      1  UNL1       -0.0801
@<TRIPOS>BOND
     1    13    14    1
     2    14    15   ar
     3    15    16   ar
     4    16     6    1
     5     6     7   ar
     6     7     8   ar
     7     8     9   ar
     8     9     1    1
     9     1     2   ar
    10     2     3   ar
    11     3    19    1
    12    19    20    1
    13    20    21    2
    14    20    22   am
    15    22    24    1
    16    24    25   ar
    17    25    26   ar
    18    26    27   ar
    19    27    28   ar
    20    28    29    1
    21    28    30   ar
    22    30    31    1
    23     3     4   ar
    24     4     5   ar
    25     9    10   ar
    26    10    11   ar
    27    11    12    1
    28    16    17   ar
    29    17    18   ar
    30    18    14   ar
    31    11     6   ar
    32     5     1   ar
    33    30    24   ar
    34    22    23    1
@<TRIPOS>MOLECULE
*****
 31 34 0 0 0
SMALL
GASTEIGER

@<TRIPOS>ATOM
      1 C         138.5347  139.6433  159.8937 C.ar    1  UNL1        0.1233
      2 C         139.6234  139.1527  158.9860 C.ar    1  UNL1        0.1181
      3 N         139.1815  139.3747  157.5699 N.ar    1  UNL1       -0.2208
      4 N         137.8195  140.0026  157.6025 N.ar    1  UNL1       -0.0633
      5 N         137.4198  140.1686  159.0387 N.ar    1  UNL1       -0.1287
      6 C         138.6015  139.5548  164.3923 C.ar    1  UNL1        0.0929
      7 C         137.8892  140.6626  163.6745 C.ar    1  UNL1        0.0199
      8 C         137.8669  140.6921  162.1750 C.ar    1  UNL1        0.0032
      9 C         138.5570  139.6137  161.3933 C.ar    1  UNL1        0.0233
     10 C         139.2693  138.5059  162.1112 C.ar    1  UNL1        0.0327
     11 C         139.2915  138.4764  163.6107 C.ar    1  UNL1        0.1562
     12 F         140.0038  137.3686  164.3286 F       1  UNL1       -0.2026
     13 C         139.9160  140.5167  169.4151 C.3     1  UNL1        0.0538
     14 C         139.2280  139.9674  168.2006 C.ar    1  UNL1        0.0786
     15 C         139.5590  140.2968  166.7752 C.ar    1  UNL1        0.0963
     16 N         138.6237  139.5252  165.8919 N.ar    1  UNL1       -0.2846
     17 C         137.7147  138.7190  166.7715 C.ar    1  UNL1        0.1826
     18 N         138.0881  138.9923  168.1984 N.ar    1  UNL1       -0.2280
     19 C         139.9640  139.0296  156.3376 C.3     1  UNL1        0.2139
     20 C         140.0967  137.5980  155.9099 C.2     1  UNL1        0.2511
     21 O         138.9100  136.6827  155.9748 O.2     1  UNL1       -0.2726
     22 N         141.4161  137.0816  155.4174 N.am    1  UNL1       -0.2816
     23 H         142.1949  137.6823  155.3748 H       1  UNL1        0.1549
     24 C         141.5488  135.6500  154.9898 C.ar    1  UNL1        0.0619
     25 C         140.9738  135.2026  153.6786 C.ar    1  UNL1        0.0156
     26 C         141.1065  133.7710  153.2509 C.ar    1  UNL1        0.0022
     27 C         141.8143  132.7868  154.1345 C.ar    1  UNL1        0.0123
     28 C         142.3893  133.2342  155.4456 C.ar    1  UNL1        0.0694
     29 CL        143.0971  132.2501  156.3291 Cl      1  UNL1       -0.0813
     30 C         142.2566  134.6659  155.8732 C.ar    1  UNL1        0.0816
     31 CL        142.8315  135.1134  157.1844 Cl      1  UNL1       -0.0801
@<TRIPOS>BOND
     1    13    14    1
     2    14    15   ar
     3    15    16   ar
     4    16     6    1
     5     6     7   ar
     6     7     8   ar
     7     8     9   ar
     8     9     1    1
     9     1     2   ar
    10     2     3   ar
    11     3    19    1
    12    19    20    1
    13    20    21    2
    14    20    22   am
    15    22    24    1
    16    24    25   ar
    17    25    26   ar
    18    26    27   ar
    19    27    28   ar
    20    28    29    1
    21    28    30   ar
    22    30    31    1
    23     3     4   ar
    24     4     5   ar
    25     9    10   ar
    26    10    11   ar
    27    11    12    1
    28    16    17   ar
    29    17    18   ar
    30    18    14   ar
    31    11     6   ar
    32     5     1   ar
    33    30    24   ar
    34    22    23    1
@<TRIPOS>MOLECULE
*****
 31 34 0 0 0
SMALL
GASTEIGER

@<TRIPOS>ATOM
      1 C         140.8731  144.1317  162.0944 C.ar    1  UNL1        0.1233
      2 C         141.1178  143.5392  160.7383 C.ar    1  UNL1        0.1181
      3 N         140.5774  144.4907  159.7123 N.ar    1  UNL1       -0.2208
      4 N         139.9988  145.6714  160.4344 N.ar    1  UNL1       -0.0633
      5 N         140.1815  145.4495  161.9066 N.ar    1  UNL1       -0.1287
      6 C         142.0137  142.2810  166.0344 C.ar    1  UNL1        0.0929
      7 C         143.0770  142.8130  165.1199 C.ar    1  UNL1        0.0199
      8 C         142.6968  143.4299  163.8066 C.ar    1  UNL1        0.0032
      9 C         141.2533  143.5148  163.4078 C.ar    1  UNL1        0.0233
     10 C         140.1900  142.9828  164.3223 C.ar    1  UNL1        0.0327
     11 C         140.5702  142.3659  165.6356 C.ar    1  UNL1        0.1562
     12 F         139.5068  141.8338  166.5501 F       1  UNL1       -0.2026
     13 C         142.5836  138.8148  169.9767 C.3     1  UNL1        0.0538
     14 C         142.6558  140.0708  169.1599 C.ar    1  UNL1        0.0786
     15 C         142.0946  140.2597  167.7817 C.ar    1  UNL1        0.0963
     16 N         142.3938  141.6640  167.3478 N.ar    1  UNL1       -0.2846
     17 C         143.1400  142.3431  168.4578 C.ar    1  UNL1        0.1826
     18 N         143.3019  141.3584  169.5777 N.ar    1  UNL1       -0.2280
     19 C         140.6100  144.2959  158.2254 C.3     1  UNL1        0.2139
     20 C         140.7241  145.4831  157.3157 C.2     1  UNL1        0.2511
     21 O         142.0086  146.2548  157.2471 O.2     1  UNL1       -0.2726
     22 N         139.5536  145.8987  156.4746 N.am    1  UNL1       -0.2816
     23 H         138.7106  145.3923  156.5197 H       1  UNL1        0.1549
     24 C         139.6677  147.0860  155.5650 C.ar    1  UNL1        0.0619
     25 C         140.3463  146.9487  154.2343 C.ar    1  UNL1        0.0156
     26 C         140.4603  148.1359  153.3246 C.ar    1  UNL1        0.0022
     27 C         139.8957  149.4604  153.7457 C.ar    1  UNL1        0.0123
     28 C         139.2171  149.5976  155.0763 C.ar    1  UNL1        0.0694
     29 CL        138.6525  150.9219  155.4973 Cl      1  UNL1       -0.0813
     30 C         139.1031  148.4103  155.9859 C.ar    1  UNL1        0.0816
     31 CL        138.4245  148.5475  157.3166 Cl      1  UNL1       -0.0801
@<TRIPOS>BOND
     1    13    14    1
     2    14    15   ar
     3    15    16   ar
     4    16     6    1
     5     6     7   ar
     6     7     8   ar
     7     8     9   ar
     8     9     1    1
     9     1     2   ar
    10     2     3   ar
    11     3    19    1
    12    19    20    1
    13    20    21    2
    14    20    22   am
    15    22    24    1
    16    24    25   ar
    17    25    26   ar
    18    26    27   ar
    19    27    28   ar
    20    28    29    1
    21    28    30   ar
    22    30    31    1
    23     3     4   ar
    24     4     5   ar
    25     9    10   ar
    26    10    11   ar
    27    11    12    1
    28    16    17   ar
    29    17    18   ar
    30    18    14   ar
    31    11     6   ar
    32     5     1   ar
    33    30    24   ar
    34    22    23    1
@<TRIPOS>MOLECULE
*****
 31 34 0 0 0
SMALL
GASTEIGER

@<TRIPOS>ATOM
      1 C         140.7567  144.6194  162.6689 C.ar    1  UNL1        0.1233
      2 C         141.3984  144.4626  161.3221 C.ar    1  UNL1        0.1181
      3 N         140.6864  145.3680  160.3612 N.ar    1  UNL1       -0.2208
      4 N         139.6047  146.0843  161.1141 N.ar    1  UNL1       -0.0633
      5 N         139.6481  145.6216  162.5403 N.ar    1  UNL1       -0.1287
      6 C         141.9480  142.4616  166.4338 C.ar    1  UNL1        0.0929
      7 C         140.5469  142.9724  166.2735 C.ar    1  UNL1        0.0199
      8 C         140.1498  143.6916  165.0186 C.ar    1  UNL1        0.0032
      9 C         141.1538  143.9001  163.9239 C.ar    1  UNL1        0.0233
     10 C         142.5550  143.3893  164.0841 C.ar    1  UNL1        0.0327
     11 C         142.9521  142.6700  165.3391 C.ar    1  UNL1        0.1562
     12 F         144.3534  142.1591  165.4993 F       1  UNL1       -0.2026
     13 C         142.5677  138.6932  170.0802 C.3     1  UNL1        0.0538
     14 C         142.6300  140.0101  169.3648 C.ar    1  UNL1        0.0786
     15 C         142.0507  140.3078  168.0136 C.ar    1  UNL1        0.0963
     16 N         142.3452  141.7423  167.6888 N.ar    1  UNL1       -0.2846
     17 C         143.1066  142.3312  168.8392 C.ar    1  UNL1        0.1826
     18 N         143.2827  141.2607  169.8750 N.ar    1  UNL1       -0.2280
     19 C         141.0010  145.5289  158.9034 C.3     1  UNL1        0.2139
     20 C         141.5745  144.3796  158.1286 C.2     1  UNL1        0.2511
     21 O         140.6761  143.2828  157.6385 O.2     1  UNL1       -0.2726
     22 N         143.0462  144.3271  157.8439 N.am    1  UNL1       -0.2816
     23 H         143.6358  145.0469  158.1655 H       1  UNL1        0.1549
     24 C         143.6197  143.1778  157.0691 C.ar    1  UNL1        0.0619
     25 C         144.2493  142.0249  157.7933 C.ar    1  UNL1        0.0156
     26 C         144.8228  140.8757  157.0185 C.ar    1  UNL1        0.0022
     27 C         144.7666  140.8793  155.5195 C.ar    1  UNL1        0.0123
     28 C         144.1370  142.0322  154.7953 C.ar    1  UNL1        0.0694
     29 CL        144.0809  142.0358  153.2964 Cl      1  UNL1       -0.0813
     30 C         143.5636  143.1814  155.5701 C.ar    1  UNL1        0.0816
     31 CL        142.9339  144.3343  154.8460 Cl      1  UNL1       -0.0801
@<TRIPOS>BOND
     1    13    14    1
     2    14    15   ar
     3    15    16   ar
     4    16     6    1
     5     6     7   ar
     6     7     8   ar
     7     8     9   ar
     8     9     1    1
     9     1     2   ar
    10     2     3   ar
    11     3    19    1
    12    19    20    1
    13    20    21    2
    14    20    22   am
    15    22    24    1
    16    24    25   ar
    17    25    26   ar
    18    26    27   ar
    19    27    28   ar
    20    28    29    1
    21    28    30   ar
    22    30    31    1
    23     3     4   ar
    24     4     5   ar
    25     9    10   ar
    26    10    11   ar
    27    11    12    1
    28    16    17   ar
    29    17    18   ar
    30    18    14   ar
    31    11     6   ar
    32     5     1   ar
    33    30    24   ar
    34    22    23    1
@<TRIPOS>MOLECULE
*****
 31 34 0 0 0
SMALL
GASTEIGER

@<TRIPOS>ATOM
      1 C         143.5225  136.1960  156.4284 C.ar    1  UNL1        0.1233
      2 C         142.6075  136.9524  157.3454 C.ar    1  UNL1        0.1181
      3 N         142.9123  138.4141  157.2020 N.ar    1  UNL1       -0.2208
      4 N         144.0156  138.5611  156.1964 N.ar    1  UNL1       -0.0633
      5 N         144.3927  137.1902  155.7184 N.ar    1  UNL1       -0.1287
      6 C         143.6366  131.7286  155.9006 C.ar    1  UNL1        0.0929
      7 C         143.0814  132.5984  154.8120 C.ar    1  UNL1        0.0199
      8 C         143.0434  134.0876  154.9880 C.ar    1  UNL1        0.0032
      9 C         143.5605  134.7068  156.2525 C.ar    1  UNL1        0.0233
     10 C         144.1157  133.8369  157.3411 C.ar    1  UNL1        0.0327
     11 C         144.1537  132.3478  157.1652 C.ar    1  UNL1        0.1562
     12 F         144.7088  131.4779  158.2538 F       1  UNL1       -0.2026
     13 C         145.3660  126.8194  155.0115 C.3     1  UNL1        0.0538
     14 C         144.4696  127.9829  155.3160 C.ar    1  UNL1        0.0786
     15 C         144.8884  129.4208  155.3981 C.ar    1  UNL1        0.0963
     16 N         143.6746  130.2393  155.7247 N.ar    1  UNL1       -0.2846
     17 C         142.5055  129.3072  155.8445 C.ar    1  UNL1        0.1826
     18 N         142.9968  127.9127  155.5919 N.ar    1  UNL1       -0.2280
     19 C         142.2330  139.5325  157.9353 C.3     1  UNL1        0.2139
     20 C         142.4635  139.7138  159.4064 C.2     1  UNL1        0.2511
     21 O         141.3085  140.0148  160.3151 O.2     1  UNL1       -0.2726
     22 N         143.8489  139.5941  159.9688 N.am    1  UNL1       -0.2816
     23 H         144.6069  139.3966  159.3725 H       1  UNL1        0.1549
     24 C         144.0794  139.7754  161.4399 C.ar    1  UNL1        0.0619
     25 C         143.8277  138.6375  162.3843 C.ar    1  UNL1        0.0156
     26 C         144.0583  138.8188  163.8553 C.ar    1  UNL1        0.0022
     27 C         144.5404  140.1380  164.3819 C.ar    1  UNL1        0.0123
     28 C         144.7921  141.2759  163.4376 C.ar    1  UNL1        0.0694
     29 CL        145.2742  142.5950  163.9642 Cl      1  UNL1       -0.0813
     30 C         144.5615  141.0946  161.9665 C.ar    1  UNL1        0.0816
     31 CL        144.8132  142.2324  161.0221 Cl      1  UNL1       -0.0801
@<TRIPOS>BOND
     1    13    14    1
     2    14    15   ar
     3    15    16   ar
     4    16     6    1
     5     6     7   ar
     6     7     8   ar
     7     8     9   ar
     8     9     1    1
     9     1     2   ar
    10     2     3   ar
    11     3    19    1
    12    19    20    1
    13    20    21    2
    14    20    22   am
    15    22    24    1
    16    24    25   ar
    17    25    26   ar
    18    26    27   ar
    19    27    28   ar
    20    28    29    1
    21    28    30   ar
    22    30    31    1
    23     3     4   ar
    24     4     5   ar
    25     9    10   ar
    26    10    11   ar
    27    11    12    1
    28    16    17   ar
    29    17    18   ar
    30    18    14   ar
    31    11     6   ar
    32     5     1   ar
    33    30    24   ar
    34    22    23    1
@<TRIPOS>MOLECULE
*****
 31 34 0 0 0
SMALL
GASTEIGER

@<TRIPOS>ATOM
      1 C         143.3224  136.2817  156.3976 C.ar    1  UNL1        0.1233
      2 C         142.2680  136.9890  157.1964 C.ar    1  UNL1        0.1181
      3 N         142.5862  138.4548  157.1890 N.ar    1  UNL1       -0.2208
      4 N         143.8373  138.6535  156.3857 N.ar    1  UNL1       -0.0633
      5 N         144.2923  137.3104  155.8966 N.ar    1  UNL1       -0.1287
      6 C         143.5381  131.8516  155.6379 C.ar    1  UNL1        0.0929
      7 C         142.9978  132.7683  154.5808 C.ar    1  UNL1        0.0199
      8 C         142.9259  134.2450  154.8340 C.ar    1  UNL1        0.0032
      9 C         143.3943  134.8049  156.1444 C.ar    1  UNL1        0.0233
     10 C         143.9346  133.8881  157.2016 C.ar    1  UNL1        0.0327
     11 C         144.0065  132.4115  156.9483 C.ar    1  UNL1        0.1562
     12 F         144.5467  131.4946  158.0055 F       1  UNL1       -0.2026
     13 C         142.1498  126.8401  154.7216 C.3     1  UNL1        0.0538
     14 C         142.9718  128.0713  154.9635 C.ar    1  UNL1        0.0786
     15 C         142.4408  129.4566  155.1848 C.ar    1  UNL1        0.0963
     16 N         143.6100  130.3748  155.3847 N.ar    1  UNL1       -0.2846
     17 C         144.8636  129.5570  155.2869 C.ar    1  UNL1        0.1826
     18 N         144.4693  128.1334  155.0266 N.ar    1  UNL1       -0.2280
     19 C         141.7926  139.5327  157.8660 C.3     1  UNL1        0.2139
     20 C         142.2391  140.0718  159.1927 C.2     1  UNL1        0.2511
     21 O         141.2224  140.5146  160.2029 O.2     1  UNL1       -0.2726
     22 N         143.7022  140.1682  159.5091 N.am    1  UNL1       -0.2816
     23 H         144.3694  139.8776  158.8461 H       1  UNL1        0.1549
     24 C         144.1486  140.7073  160.8358 C.ar    1  UNL1        0.0619
     25 C         144.4325  142.1718  160.9930 C.ar    1  UNL1        0.0156
     26 C         144.8790  142.7109  162.3197 C.ar    1  UNL1        0.0022
     27 C         145.0416  141.7855  163.4890 C.ar    1  UNL1        0.0123
     28 C         144.7577  140.3211  163.3318 C.ar    1  UNL1        0.0694
     29 CL        144.9203  139.3958  164.5011 Cl      1  UNL1       -0.0813
     30 C         144.3112  139.7820  162.0051 C.ar    1  UNL1        0.0816
     31 CL        144.0273  138.3176  161.8478 Cl      1  UNL1       -0.0801
@<TRIPOS>BOND
     1    13    14    1
     2    14    15   ar
     3    15    16   ar
     4    16     6    1
     5     6     7   ar
     6     7     8   ar
     7     8     9   ar
     8     9     1    1
     9     1     2   ar
    10     2     3   ar
    11     3    19    1
    12    19    20    1
    13    20    21    2
    14    20    22   am
    15    22    24    1
    16    24    25   ar
    17    25    26   ar
    18    26    27   ar
    19    27    28   ar
    20    28    29    1
    21    28    30   ar
    22    30    31    1
    23     3     4   ar
    24     4     5   ar
    25     9    10   ar
    26    10    11   ar
    27    11    12    1
    28    16    17   ar
    29    17    18   ar
    30    18    14   ar
    31    11     6   ar
    32     5     1   ar
    33    30    24   ar
    34    22    23    1
