@<TRIPOS>MOLECULE
*****
 27 29 0 0 0
SMALL
GASTEIGER

@<TRIPOS>ATOM
      1 N         140.5194  144.5836  161.6083 N.3     1  UNL1       -0.1466
      2 C         139.4076  145.1272  162.4560 C.3     1  UNL1        0.1222
      3 C         139.5731  144.5813  163.8433 C.ar    1  UNL1       -0.0071
      4 C         138.7752  144.7726  165.0989 C.ar    1  UNL1       -0.0031
      5 C         139.1913  144.0829  166.3643 C.ar    1  UNL1       -0.0003
      6 C         140.4053  143.2020  166.3740 C.ar    1  UNL1       -0.0001
      7 C         141.2032  143.0107  165.1184 C.ar    1  UNL1       -0.0031
      8 C         140.7871  143.7004  163.8530 C.ar    1  UNL1       -0.0071
      9 C         141.3719  143.7018  162.4717 C.3     1  UNL1        0.1222
     10 S         140.7398  144.8714  160.1527 S.O2    1  UNL1        0.0639
     11 O         139.6622  145.9139  160.1956 O.2     1  UNL1       -0.1528
     12 O         141.8175  143.8289  160.1098 O.2     1  UNL1       -0.1528
     13 C         139.3043  147.2687  155.7718 C.3     1  UNL1        0.0311
     14 C         140.2426  146.3578  156.5067 C.ar    1  UNL1       -0.0205
     15 C         141.4012  145.7347  155.7861 C.ar    1  UNL1       -0.0042
     16 C         142.3393  144.8238  156.5210 C.ar    1  UNL1        0.0010
     17 C         142.1189  144.5360  157.9766 C.ar    1  UNL1        0.0199
     18 C         140.9603  145.1592  158.6972 C.ar    1  UNL1        0.1219
     19 C         140.0221  146.0700  157.9623 C.ar    1  UNL1        0.0157
     20 C         140.8214  142.5123  167.6394 C.2     1  UNL1        0.0047
     21 C         140.5154  143.1358  168.9689 C.2     1  UNL1        0.0598
     22 C         140.9315  142.4461  170.2344 C.2     1  UNL1        0.2679
     23 O         142.1484  142.9122  170.9773 O.2     1  UNL1       -0.2681
     24 N         140.1307  141.2904  170.7568 N.am    1  UNL1       -0.1934
     25 O         140.5468  140.6008  172.0222 O.3     1  UNL1       -0.2949
     26 H         139.3320  140.9845  170.2692 H       1  UNL1        0.1825
     27 H         141.3467  141.0230  172.3726 H       1  UNL1        0.2414
@<TRIPOS>BOND
     1    13    14    1
     2    14    15   ar
     3    15    16   ar
     4    16    17   ar
     5    17    18   ar
     6    18    10    1
     7    10    11    2
     8    10    12    2
     9    10     1    1
    10     1     2    1
    11     2     3    1
    12     3     4   ar
    13     4     5   ar
    14     5     6   ar
    15     6    20    1
    16    20    21    2
    17    21    22    1
    18    22    23    2
    19    22    24   am
    20    24    25    1
    21     6     7   ar
    22     7     8   ar
    23     8     9    1
    24    18    19   ar
    25    19    14   ar
    26     9     1    1
    27     8     3   ar
    28    24    26    1
    29    25    27    1
@<TRIPOS>MOLECULE
*****
 27 29 0 0 0
SMALL
GASTEIGER

@<TRIPOS>ATOM
      1 N         138.3491  140.4588  161.1088 N.3     1  UNL1       -0.1466
      2 C         138.6689  139.0230  161.4025 C.3     1  UNL1        0.1222
      3 C         138.6617  138.8416  162.8915 C.ar    1  UNL1       -0.0071
      4 C         138.9085  137.6422  163.7577 C.ar    1  UNL1       -0.0031
      5 C         138.8310  137.7664  165.2505 C.ar    1  UNL1       -0.0003
      6 C         138.5067  139.0901  165.8771 C.ar    1  UNL1       -0.0001
      7 C         138.2599  140.2896  165.0109 C.ar    1  UNL1       -0.0031
      8 C         138.3374  140.1653  163.5181 C.ar    1  UNL1       -0.0071
      9 C         138.1442  141.1648  162.4164 C.3     1  UNL1        0.1222
     10 S         138.2513  141.0796  159.7468 S.O2    1  UNL1        0.0639
     11 O         138.3493  142.4443  160.3618 O.2     1  UNL1       -0.1528
     12 O         138.1534  139.7150  159.1319 O.2     1  UNL1       -0.1528
     13 C         136.2149  141.1448  154.9668 C.3     1  UNL1        0.0311
     14 C         137.1354  141.7330  155.9948 C.ar    1  UNL1       -0.0205
     15 C         137.9580  142.9420  155.6608 C.ar    1  UNL1       -0.0042
     16 C         138.8784  143.5302  156.6888 C.ar    1  UNL1        0.0010
     17 C         138.9762  142.9094  158.0509 C.ar    1  UNL1        0.0199
     18 C         138.1536  141.7004  158.3848 C.ar    1  UNL1        0.1219
     19 C         137.2332  141.1122  157.3568 C.ar    1  UNL1        0.0157
     20 C         138.4292  139.2143  167.3700 C.2     1  UNL1        0.0047
     21 C         139.4593  140.0147  168.1104 C.2     1  UNL1        0.0598
     22 C         139.3818  140.1389  169.6033 C.2     1  UNL1        0.2679
     23 O         138.0606  139.9999  170.2999 O.2     1  UNL1       -0.2681
     24 N         140.6254  140.4021  170.3996 N.am    1  UNL1       -0.1934
     25 O         140.5479  140.5263  171.8924 O.3     1  UNL1       -0.2949
     26 H         141.4926  140.4933  169.9424 H       1  UNL1        0.1825
     27 H         139.6284  140.4114  172.1791 H       1  UNL1        0.2414
@<TRIPOS>BOND
     1    13    14    1
     2    14    15   ar
     3    15    16   ar
     4    16    17   ar
     5    17    18   ar
     6    18    10    1
     7    10    11    2
     8    10    12    2
     9    10     1    1
    10     1     2    1
    11     2     3    1
    12     3     4   ar
    13     4     5   ar
    14     5     6   ar
    15     6    20    1
    16    20    21    2
    17    21    22    1
    18    22    23    2
    19    22    24   am
    20    24    25    1
    21     6     7   ar
    22     7     8   ar
    23     8     9    1
    24    18    19   ar
    25    19    14   ar
    26     9     1    1
    27     8     3   ar
    28    24    26    1
    29    25    27    1
@<TRIPOS>MOLECULE
*****
 27 29 0 0 0
SMALL
GASTEIGER

@<TRIPOS>ATOM
      1 N         138.3564  140.4809  161.1142 N.3     1  UNL1       -0.1466
      2 C         138.6781  139.0467  161.4134 C.3     1  UNL1        0.1222
      3 C         138.6632  138.8691  162.9028 C.ar    1  UNL1       -0.0071
      4 C         138.9082  137.6726  163.7734 C.ar    1  UNL1       -0.0031
      5 C         138.8222  137.8005  165.2655 C.ar    1  UNL1       -0.0003
      6 C         138.4912  139.1250  165.8868 C.ar    1  UNL1       -0.0001
      7 C         138.2462  140.3216  165.0162 C.ar    1  UNL1       -0.0031
      8 C         138.3322  140.1937  163.5241 C.ar    1  UNL1       -0.0071
      9 C         138.1426  141.1897  162.4187 C.3     1  UNL1        0.1222
     10 S         138.2646  141.0979  159.7501 S.O2    1  UNL1        0.0639
     11 O         137.5160  139.8953  159.2566 O.2     1  UNL1       -0.1528
     12 O         139.0131  142.3004  160.2436 O.2     1  UNL1       -0.1528
     13 C         139.6447  144.8127  156.3892 C.3     1  UNL1        0.0311
     14 C         138.8628  143.5723  156.7055 C.ar    1  UNL1       -0.0205
     15 C         137.9891  142.9489  155.6576 C.ar    1  UNL1       -0.0042
     16 C         137.2072  141.7085  155.9739 C.ar    1  UNL1        0.0010
     17 C         137.2991  141.0915  157.3381 C.ar    1  UNL1        0.0199
     18 C         138.1727  141.7149  158.3859 C.ar    1  UNL1        0.1219
     19 C         138.9546  142.9553  158.0696 C.ar    1  UNL1        0.0157
     20 C         138.4052  139.2529  167.3789 C.2     1  UNL1        0.0047
     21 C         139.4706  139.9944  168.1307 C.2     1  UNL1        0.0598
     22 C         139.3846  140.1223  169.6229 C.2     1  UNL1        0.2679
     23 O         138.0584  139.9922  170.3116 O.2     1  UNL1       -0.2681
     24 N         140.6248  140.3803  170.4262 N.am    1  UNL1       -0.1934
     25 O         140.5387  140.5082  171.9182 O.3     1  UNL1       -0.2949
     26 H         141.4952  140.4657  169.9742 H       1  UNL1        0.1825
     27 H         139.6168  140.3991  172.1995 H       1  UNL1        0.2414
@<TRIPOS>BOND
     1    13    14    1
     2    14    15   ar
     3    15    16   ar
     4    16    17   ar
     5    17    18   ar
     6    18    10    1
     7    10    11    2
     8    10    12    2
     9    10     1    1
    10     1     2    1
    11     2     3    1
    12     3     4   ar
    13     4     5   ar
    14     5     6   ar
    15     6    20    1
    16    20    21    2
    17    21    22    1
    18    22    23    2
    19    22    24   am
    20    24    25    1
    21     6     7   ar
    22     7     8   ar
    23     8     9    1
    24    18    19   ar
    25    19    14   ar
    26     9     1    1
    27     8     3   ar
    28    24    26    1
    29    25    27    1
@<TRIPOS>MOLECULE
*****
 27 29 0 0 0
SMALL
GASTEIGER

@<TRIPOS>ATOM
      1 N         140.8862  144.3121  161.3582 N.3     1  UNL1       -0.1466
      2 C         139.7040  144.9163  162.0563 C.3     1  UNL1        0.1222
      3 C         139.7324  144.4690  163.4878 C.ar    1  UNL1       -0.0071
      4 C         138.8208  144.7498  164.6454 C.ar    1  UNL1       -0.0031
      5 C         139.1090  144.1499  165.9896 C.ar    1  UNL1       -0.0003
      6 C         140.3088  143.2692  166.1763 C.ar    1  UNL1       -0.0001
      7 C         141.2204  142.9883  165.0187 C.ar    1  UNL1       -0.0031
      8 C         140.9322  143.5882  163.6744 C.ar    1  UNL1       -0.0071
      9 C         141.6452  143.4912  162.3583 C.3     1  UNL1        0.1222
     10 S         141.2461  144.4963  159.9138 S.O2    1  UNL1        0.0639
     11 O         142.6393  144.0198  160.2002 O.2     1  UNL1       -0.1528
     12 O         139.8530  144.9727  159.6274 O.2     1  UNL1       -0.1528
     13 C         143.7681  142.8894  155.6643 C.3     1  UNL1        0.0311
     14 C         142.8670  143.8771  156.3446 C.ar    1  UNL1       -0.0205
     15 C         142.3260  145.0489  155.5803 C.ar    1  UNL1       -0.0042
     16 C         141.4249  146.0365  156.2606 C.ar    1  UNL1        0.0010
     17 C         141.0650  145.8523  157.7051 C.ar    1  UNL1        0.0199
     18 C         141.6061  144.6805  158.4693 C.ar    1  UNL1        0.1219
     19 C         142.5071  143.6929  157.7890 C.ar    1  UNL1        0.0157
     20 C         140.5969  142.6692  167.5206 C.2     1  UNL1        0.0047
     21 C         140.2878  143.4419  168.7685 C.2     1  UNL1        0.0598
     22 C         140.5759  142.8420  170.1129 C.2     1  UNL1        0.2679
     23 O         139.4826  142.1578  170.8787 O.2     1  UNL1       -0.2681
     24 N         141.9573  142.9263  170.6913 N.am    1  UNL1       -0.1934
     25 O         142.2454  142.3264  172.0355 O.3     1  UNL1       -0.2949
     26 H         142.6749  143.3753  170.1886 H       1  UNL1        0.1825
     27 H         141.4364  141.9265  172.3912 H       1  UNL1        0.2414
@<TRIPOS>BOND
     1    13    14    1
     2    14    15   ar
     3    15    16   ar
     4    16    17   ar
     5    17    18   ar
     6    18    10    1
     7    10    11    2
     8    10    12    2
     9    10     1    1
    10     1     2    1
    11     2     3    1
    12     3     4   ar
    13     4     5   ar
    14     5     6   ar
    15     6    20    1
    16    20    21    2
    17    21    22    1
    18    22    23    2
    19    22    24   am
    20    24    25    1
    21     6     7   ar
    22     7     8   ar
    23     8     9    1
    24    18    19   ar
    25    19    14   ar
    26     9     1    1
    27     8     3   ar
    28    24    26    1
    29    25    27    1
@<TRIPOS>MOLECULE
*****
 27 29 0 0 0
SMALL
GASTEIGER

@<TRIPOS>ATOM
      1 N         140.5025  140.9655  165.4924 N.3     1  UNL1       -0.1466
      2 C         139.6694  141.1149  166.7307 C.3     1  UNL1        0.1222
      3 C         140.4227  140.5006  167.8732 C.ar    1  UNL1       -0.0071
      4 C         140.0939  140.3547  169.3294 C.ar    1  UNL1       -0.0031
      5 C         141.0638  139.6798  170.2533 C.ar    1  UNL1       -0.0003
      6 C         142.3626  139.1507  169.7210 C.ar    1  UNL1       -0.0001
      7 C         142.6914  139.2966  168.2648 C.ar    1  UNL1       -0.0031
      8 C         141.7215  139.9716  167.3409 C.ar    1  UNL1       -0.0071
      9 C         141.7708  140.2589  165.8695 C.3     1  UNL1        0.1222
     10 S         140.1323  141.4394  164.1182 S.O2    1  UNL1        0.0639
     11 O         139.3312  142.5561  164.7191 O.2     1  UNL1       -0.1528
     12 O         140.9335  140.3227  163.5172 O.2     1  UNL1       -0.1528
     13 C         140.4667  144.9927  160.3416 C.3     1  UNL1        0.0311
     14 C         139.9293  143.6899  160.8557 C.ar    1  UNL1       -0.0205
     15 C         139.0219  142.8612  159.9956 C.ar    1  UNL1       -0.0042
     16 C         138.4846  141.5586  160.5097 C.ar    1  UNL1        0.0010
     17 C         138.8548  141.0846  161.8839 C.ar    1  UNL1        0.0199
     18 C         139.7622  141.9133  162.7440 C.ar    1  UNL1        0.1219
     19 C         140.2995  143.2160  162.2299 C.ar    1  UNL1        0.0157
     20 C         143.3325  138.4757  170.6449 C.2     1  UNL1        0.0047
     21 C         143.6189  137.0113  170.4921 C.2     1  UNL1        0.0598
     22 C         144.5889  136.3363  171.4161 C.2     1  UNL1        0.2679
     23 O         145.8978  136.9936  171.7398 O.2     1  UNL1       -0.2681
     24 N         144.2499  135.0041  172.0163 N.am    1  UNL1       -0.1934
     25 O         145.2198  134.3292  172.9402 O.3     1  UNL1       -0.2949
     26 H         143.3909  134.5727  171.8038 H       1  UNL1        0.1825
     27 H         146.0090  134.8840  173.0420 H       1  UNL1        0.2414
@<TRIPOS>BOND
     1    13    14    1
     2    14    15   ar
     3    15    16   ar
     4    16    17   ar
     5    17    18   ar
     6    18    10    1
     7    10    11    2
     8    10    12    2
     9    10     1    1
    10     1     2    1
    11     2     3    1
    12     3     4   ar
    13     4     5   ar
    14     5     6   ar
    15     6    20    1
    16    20    21    2
    17    21    22    1
    18    22    23    2
    19    22    24   am
    20    24    25    1
    21     6     7   ar
    22     7     8   ar
    23     8     9    1
    24    18    19   ar
    25    19    14   ar
    26     9     1    1
    27     8     3   ar
    28    24    26    1
    29    25    27    1
@<TRIPOS>MOLECULE
*****
 27 29 0 0 0
SMALL
GASTEIGER

@<TRIPOS>ATOM
      1 N         141.6998  143.9454  161.3287 N.3     1  UNL1       -0.1466
      2 C         143.1146  144.0498  161.8158 C.3     1  UNL1        0.1222
      3 C         143.1477  143.5946  163.2447 C.ar    1  UNL1       -0.0071
      4 C         144.2674  143.4814  164.2363 C.ar    1  UNL1       -0.0031
      5 C         143.9927  142.9826  165.6240 C.ar    1  UNL1       -0.0003
      6 C         142.5983  142.5968  166.0200 C.ar    1  UNL1       -0.0001
      7 C         141.4786  142.7099  165.0283 C.ar    1  UNL1       -0.0031
      8 C         141.7533  143.2088  163.6407 C.ar    1  UNL1       -0.0071
      9 C         140.8585  143.4257  162.4565 C.3     1  UNL1        0.1222
     10 S         141.2119  144.2988  159.9550 S.O2    1  UNL1        0.0639
     11 O         142.6025  144.1316  159.4181 O.2     1  UNL1       -0.1528
     12 O         139.8213  144.4660  160.4918 O.2     1  UNL1       -0.1528
     13 C         138.0780  143.3705  155.9155 C.3     1  UNL1        0.0311
     14 C         139.1571  144.1880  156.5615 C.ar    1  UNL1       -0.0205
     15 C         139.7483  145.3588  155.8338 C.ar    1  UNL1       -0.0042
     16 C         140.8273  146.1763  156.4798 C.ar    1  UNL1        0.0010
     17 C         141.3152  145.8229  157.8535 C.ar    1  UNL1        0.0199
     18 C         140.7240  144.6521  158.5812 C.ar    1  UNL1        0.1219
     19 C         139.6450  143.8347  157.9353 C.ar    1  UNL1        0.0157
     20 C         142.3236  142.0979  167.4077 C.2     1  UNL1        0.0047
     21 C         143.3357  142.3087  168.4945 C.2     1  UNL1        0.0598
     22 C         143.0610  141.8098  169.8823 C.2     1  UNL1        0.2679
     23 O         143.3508  140.3814  170.2368 O.2     1  UNL1       -0.2681
     24 N         142.4967  142.7394  170.9154 N.am    1  UNL1       -0.1934
     25 O         142.2220  142.2405  172.3030 O.3     1  UNL1       -0.2949
     26 H         142.3065  143.6769  170.6827 H       1  UNL1        0.1825
     27 H         142.4635  141.3029  172.3633 H       1  UNL1        0.2414
@<TRIPOS>BOND
     1    13    14    1
     2    14    15   ar
     3    15    16   ar
     4    16    17   ar
     5    17    18   ar
     6    18    10    1
     7    10    11    2
     8    10    12    2
     9    10     1    1
    10     1     2    1
    11     2     3    1
    12     3     4   ar
    13     4     5   ar
    14     5     6   ar
    15     6    20    1
    16    20    21    2
    17    21    22    1
    18    22    23    2
    19    22    24   am
    20    24    25    1
    21     6     7   ar
    22     7     8   ar
    23     8     9    1
    24    18    19   ar
    25    19    14   ar
    26     9     1    1
    27     8     3   ar
    28    24    26    1
    29    25    27    1
@<TRIPOS>MOLECULE
*****
 27 29 0 0 0
SMALL
GASTEIGER

@<TRIPOS>ATOM
      1 N         141.5495  143.9179  161.6505 N.3     1  UNL1       -0.1466
      2 C         142.7928  143.8080  162.4824 C.3     1  UNL1        0.1222
      3 C         142.3993  143.3064  163.8402 C.ar    1  UNL1       -0.0071
      4 C         143.2025  143.0060  165.0709 C.ar    1  UNL1       -0.0031
      5 C         142.5191  142.5056  166.3088 C.ar    1  UNL1       -0.0003
      6 C         141.0326  142.3055  166.3161 C.ar    1  UNL1       -0.0001
      7 C         140.2293  142.6059  165.0854 C.ar    1  UNL1       -0.0031
      8 C         140.9127  143.1064  163.8475 C.ar    1  UNL1       -0.0071
      9 C         140.3875  143.4843  162.4942 C.3     1  UNL1        0.1222
     10 S         141.4803  144.3803  160.2253 S.O2    1  UNL1        0.0639
     11 O         140.0598  144.8142  160.4350 O.2     1  UNL1       -0.1528
     12 O         142.9008  143.9465  160.0155 O.2     1  UNL1       -0.1528
     13 C         139.1854  147.2064  156.5176 C.3     1  UNL1        0.0311
     14 C         140.2637  146.2557  156.9461 C.ar    1  UNL1       -0.0205
     15 C         141.2727  145.7674  155.9494 C.ar    1  UNL1       -0.0042
     16 C         142.3509  144.8168  156.3780 C.ar    1  UNL1        0.0010
     17 C         142.4201  144.3544  157.8033 C.ar    1  UNL1        0.0199
     18 C         141.4111  144.8427  158.8000 C.ar    1  UNL1        0.1219
     19 C         140.3329  145.7933  158.3714 C.ar    1  UNL1        0.0157
     20 C         140.3492  141.8050  167.5541 C.2     1  UNL1        0.0047
     21 C         141.1231  141.6580  168.8305 C.2     1  UNL1        0.0598
     22 C         140.4397  141.1575  170.0686 C.2     1  UNL1        0.2679
     23 O         139.9516  142.1300  171.1010 O.2     1  UNL1       -0.2681
     24 N         140.2446  139.6845  170.2741 N.am    1  UNL1       -0.1934
     25 O         139.5612  139.1841  171.5121 O.3     1  UNL1       -0.2949
     26 H         140.5649  139.0462  169.5965 H       1  UNL1        0.1825
     27 H         139.3108  139.9371  172.0700 H       1  UNL1        0.2414
@<TRIPOS>BOND
     1    13    14    1
     2    14    15   ar
     3    15    16   ar
     4    16    17   ar
     5    17    18   ar
     6    18    10    1
     7    10    11    2
     8    10    12    2
     9    10     1    1
    10     1     2    1
    11     2     3    1
    12     3     4   ar
    13     4     5   ar
    14     5     6   ar
    15     6    20    1
    16    20    21    2
    17    21    22    1
    18    22    23    2
    19    22    24   am
    20    24    25    1
    21     6     7   ar
    22     7     8   ar
    23     8     9    1
    24    18    19   ar
    25    19    14   ar
    26     9     1    1
    27     8     3   ar
    28    24    26    1
    29    25    27    1
@<TRIPOS>MOLECULE
*****
 27 29 0 0 0
SMALL
GASTEIGER

@<TRIPOS>ATOM
      1 N         139.3779  139.6275  162.6382 N.3     1  UNL1       -0.1466
      2 C         138.3471  139.0812  163.5812 C.3     1  UNL1        0.1222
      3 C         138.7904  139.3882  164.9810 C.ar    1  UNL1       -0.0071
      4 C         138.1745  139.0927  166.3164 C.ar    1  UNL1       -0.0031
      5 C         138.8633  139.5332  167.5739 C.ar    1  UNL1       -0.0003
      6 C         140.1680  140.2692  167.4960 C.ar    1  UNL1       -0.0001
      7 C         140.7838  140.5648  166.1606 C.ar    1  UNL1       -0.0031
      8 C         140.0950  140.1243  164.9031 C.ar    1  UNL1       -0.0071
      9 C         140.4581  140.2721  163.4552 C.3     1  UNL1        0.1222
     10 S         139.3357  139.5438  161.1412 S.O2    1  UNL1        0.0639
     11 O         139.3751  141.0409  161.0564 O.2     1  UNL1       -0.1528
     12 O         139.2964  138.0467  161.2260 O.2     1  UNL1       -0.1528
     13 C         140.8086  137.2464  156.7193 C.3     1  UNL1        0.0311
     14 C         140.0300  138.3114  157.4332 C.ar    1  UNL1       -0.0205
     15 C         139.2093  139.2927  156.6500 C.ar    1  UNL1       -0.0042
     16 C         138.4308  140.3577  157.3638 C.ar    1  UNL1        0.0010
     17 C         138.4729  140.4414  158.8609 C.ar    1  UNL1        0.0199
     18 C         139.2936  139.4601  159.6441 C.ar    1  UNL1        0.1219
     19 C         140.0722  138.3951  158.9303 C.ar    1  UNL1        0.0157
     20 C         140.8568  140.7098  168.7537 C.2     1  UNL1        0.0047
     21 C         140.8397  142.1560  169.1510 C.2     1  UNL1        0.0598
     22 C         141.5285  142.5966  170.4086 C.2     1  UNL1        0.2679
     23 O         141.0317  142.1212  171.7417 O.2     1  UNL1       -0.2681
     24 N         142.7141  143.5123  170.3331 N.am    1  UNL1       -0.1934
     25 O         143.4028  143.9528  171.5907 O.3     1  UNL1       -0.2949
     26 H         143.0401  143.8243  169.4581 H       1  UNL1        0.1825
     27 H         142.9591  143.5581  172.3576 H       1  UNL1        0.2414
@<TRIPOS>BOND
     1    13    14    1
     2    14    15   ar
     3    15    16   ar
     4    16    17   ar
     5    17    18   ar
     6    18    10    1
     7    10    11    2
     8    10    12    2
     9    10     1    1
    10     1     2    1
    11     2     3    1
    12     3     4   ar
    13     4     5   ar
    14     5     6   ar
    15     6    20    1
    16    20    21    2
    17    21    22    1
    18    22    23    2
    19    22    24   am
    20    24    25    1
    21     6     7   ar
    22     7     8   ar
    23     8     9    1
    24    18    19   ar
    25    19    14   ar
    26     9     1    1
    27     8     3   ar
    28    24    26    1
    29    25    27    1
@<TRIPOS>MOLECULE
*****
 27 29 0 0 0
SMALL
GASTEIGER

@<TRIPOS>ATOM
      1 N         141.0673  138.6614  161.3227 N.3     1  UNL1       -0.1466
      2 C         139.8613  138.0073  161.9291 C.3     1  UNL1        0.1222
      3 C         139.8126  138.3802  163.3811 C.ar    1  UNL1       -0.0071
      4 C         138.8494  138.0286  164.4759 C.ar    1  UNL1       -0.0031
      5 C         139.0621  138.5616  165.8618 C.ar    1  UNL1       -0.0003
      6 C         140.2380  139.4462  166.1528 C.ar    1  UNL1       -0.0001
      7 C         141.2012  139.7978  165.0581 C.ar    1  UNL1       -0.0031
      8 C         140.9885  139.2648  163.6722 C.ar    1  UNL1       -0.0071
      9 C         141.7639  139.4386  162.4000 C.3     1  UNL1        0.1222
     10 S         141.5006  138.5567  159.8904 S.O2    1  UNL1        0.0639
     11 O         140.3816  139.4696  159.4851 O.2     1  UNL1       -0.1528
     12 O         142.6197  137.6438  160.2957 O.2     1  UNL1       -0.1528
     13 C         143.6997  135.8464  156.0409 C.3     1  UNL1        0.0311
     14 C         143.0334  137.0969  156.5334 C.ar    1  UNL1       -0.0205
     15 C         142.8005  138.2426  155.5937 C.ar    1  UNL1       -0.0042
     16 C         142.1343  139.4930  156.0862 C.ar    1  UNL1        0.0010
     17 C         141.7010  139.5977  157.5185 C.ar    1  UNL1        0.0199
     18 C         141.9339  138.4520  158.4582 C.ar    1  UNL1        0.1219
     19 C         142.6001  137.2016  157.9657 C.ar    1  UNL1        0.0157
     20 C         140.4507  139.9792  167.5388 C.2     1  UNL1        0.0047
     21 C         139.3213  139.9742  168.5258 C.2     1  UNL1        0.0598
     22 C         139.5339  140.5072  169.9117 C.2     1  UNL1        0.2679
     23 O         139.5179  139.5730  171.0852 O.2     1  UNL1       -0.2681
     24 N         139.7627  141.9743  170.1242 N.am    1  UNL1       -0.1934
     25 O         139.9753  142.5072  171.5100 O.3     1  UNL1       -0.2949
     26 H         139.7732  142.5875  169.3540 H       1  UNL1        0.1825
     27 H         139.9350  141.7768  172.1470 H       1  UNL1        0.2414
@<TRIPOS>BOND
     1    13    14    1
     2    14    15   ar
     3    15    16   ar
     4    16    17   ar
     5    17    18   ar
     6    18    10    1
     7    10    11    2
     8    10    12    2
     9    10     1    1
    10     1     2    1
    11     2     3    1
    12     3     4   ar
    13     4     5   ar
    14     5     6   ar
    15     6    20    1
    16    20    21    2
    17    21    22    1
    18    22    23    2
    19    22    24   am
    20    24    25    1
    21     6     7   ar
    22     7     8   ar
    23     8     9    1
    24    18    19   ar
    25    19    14   ar
    26     9     1    1
    27     8     3   ar
    28    24    26    1
    29    25    27    1
